data/pglib_opf_case2848_rte_storage.m
%%%%%%%%%%%%%%%%%%%%%%%%%%%%%%%%%%%%%%%%%%%%%%%%%%%%%%%%%%%%%%%%%%%%%%%%%%%
%%%%                                                                  %%%%%
%%%%    IEEE PES Power Grid Library - Optimal Power Flow - v23.07     %%%%%
%%%%          (https://github.com/power-grid-lib/pglib-opf)           %%%%%
%%%%               Benchmark Group - Typical Operations               %%%%%
%%%%                         23 - July - 2023                         %%%%%
%%%%                                                                  %%%%%
%%%%%%%%%%%%%%%%%%%%%%%%%%%%%%%%%%%%%%%%%%%%%%%%%%%%%%%%%%%%%%%%%%%%%%%%%%%
%
%CASE2848RTE
%   AC Power flow data for French system.
%   Please see CASEFORMAT for details on the case file format.
%
%   This case accurately represents the size and complexity of French
%   very high voltage transmission network.
%   Part of this data was sampled in the offline platform of iTesla.
%   These data can be used to validate mathematical methods and tools.
%   These data should NOT be used for operation
%   nor planning of the French or European grids.
%
%   When publishing results using this data, please cite:
%     C. Josz, S. Fliscounakis, J. Maeght, and P. Panciatici,
%     "AC Power Flow Data in MATPOWER and QCQP Format: iTesla, RTE Snapshots, and PEGASE"
%     http://arxiv.org/abs/1603.01533
%
%   Contacts (primary contact for this file : Jean Maeght):
%   Cédric Josz, Stéphane Fliscounakis, Jean Maeght, Patrick Panciatici
%   firstname.lastname@rte-france.com
%   Réseau de Transport d'Electricité (French Transmission System Operator)
%   Département Expertise Système, Immeuble "Le Colbert"
%   9 rue de la Porte de Buc, 78000 Versailles Cedex, France
%   March 4th, 2016
%
%   Copyright (c) 2016 by Cédric Josz, Stéphane Fliscounakis, Jean Maeght,
%   and Patrick Panciatici
%   Licensed under the Creative Commons Attribution 4.0 International license,
%   http://creativecommons.org/licenses/by/4.0/
%
% Modified to have additional storage capacity and increased gencost
function mpc = pglib_opf_case2848_rte
mpc.version = '2';
mpc.baseMVA = 100.0;

%% bus data
%	bus_i	type	Pd	Qd	Gs	Bs	area	Vm	Va	baseKV	zone	Vmax	Vmin
mpc.bus = [
	1	 1	 20.6	 0.0	 0.0	 0.0	 1	    1.00000	    0.00000	 63.0	 1	    1.06349	    0.93651;
	2	 1	 20.9	 17.2	 0.0	 0.0	 1	    0.98889	    0.00000	 225.0	 1	    1.08889	    0.88889;
	3	 1	 0.0	 0.0	 0.0	 0.0	 1	    1.05131	    0.00000	 380.0	 1	    1.10263	    1.00000;
	4	 1	 0.0	 0.0	 0.0	 0.0	 1	    1.00000	    0.00000	 63.0	 1	    1.07937	    0.92063;
	5	 1	 0.4	 0.1	 0.0	 0.0	 1	    0.94444	    0.00000	 45.0	 1	    1.00000	    0.88889;
	6	 1	 -2.3	 -20.6	 0.0	 0.0	 1	    0.94444	    0.00000	 45.0	 1	    1.00000	    0.88889;
	7	 1	 110.5	 -25.5	 0.0	 0.0	 1	    1.04222	    0.00000	 225.0	 1	    1.08444	    1.00000;
	8	 1	 44.7	 1.5	 0.0	 0.0	 1	    1.01587	    0.00000	 63.0	 1	    1.06349	    0.96825;
	9	 1	 0.0	 0.0	 0.0	 -21.0	 1	    1.00000	    0.00000	 20.0	 1	    1.20000	    0.80000;
	2966	 1	 0.0	 0.0	 0.0	 -64.0	 1	    1.00000	    0.00000	 20.0	 1	    1.20000	    0.80000;
	10	 1	 0.0	 0.0	 0.0	 0.0	 1	    1.00334	    0.00000	 150.0	 1	    1.10667	    0.90000;
	11	 1	 31.7	 -8.7	 0.0	 0.0	 1	    1.01111	    0.00000	 225.0	 1	    1.08889	    0.93333;
	2571	 1	 43.7	 9.9	 0.0	 0.0	 1	    1.01111	    0.00000	 225.0	 1	    1.08889	    0.93333;
	12	 1	 0.0	 0.0	 0.0	 0.0	 1	    1.05263	    0.00000	 380.0	 1	    1.10526	    1.00000;
	13	 1	 0.0	 0.0	 0.0	 0.0	 1	    1.04534	    0.00000	 225.0	 1	    1.09067	    1.00000;
	14	 1	 -4.1	 3.7	 0.0	 0.0	 1	    1.00000	    0.00000	 63.0	 1	    1.06349	    0.93651;
	15	 1	 9.0	 -3.3	 0.0	 0.0	 1	    1.00000	    0.00000	 63.0	 1	    1.06349	    0.93651;
	16	 1	 120.0	 6.3	 0.0	 0.0	 1	    1.01111	    0.00000	 225.0	 1	    1.08889	    0.93333;
	17	 1	 35.0	 6.9	 0.0	 0.0	 1	    1.04445	    0.00000	 225.0	 1	    1.08889	    1.00000;
	18	 1	 45.0	 13.4	 0.0	 0.0	 1	    1.04481	    0.00000	 225.0	 1	    1.08962	    1.00000;
	19	 2	 0.0	 0.0	 0.0	 0.0	 1	    1.00362	    0.00000	 63.0	 1	    1.08661	    0.92063;
	20	 1	 77.3	 29.1	 0.0	 0.0	 1	    1.04445	    0.00000	 225.0	 1	    1.08889	    1.00000;
	21	 1	 48.4	 4.0	 0.0	 0.0	 1	    0.98889	    0.00000	 225.0	 1	    1.08889	    0.88889;
	22	 1	 4.6	 -11.4	 0.0	 0.0	 1	    1.00450	    0.00000	 63.0	 1	    1.07249	    0.93651;
	23	 1	 33.3	 -5.7	 0.0	 0.0	 1	    1.00000	    0.00000	 63.0	 1	    1.06349	    0.93651;
	24	 1	 0.0	 0.0	 0.0	 0.0	 1	    1.04445	    0.00000	 225.0	 1	    1.08889	    1.00000;
	2573	 1	 0.0	 0.0	 0.0	 0.0	 1	    1.04445	    0.00000	 225.0	 1	    1.08889	    1.00000;
	25	 1	 18.0	 5.6	 0.0	 0.0	 1	    0.98889	    0.00000	 225.0	 1	    1.08889	    0.88889;
	26	 1	 1.0	 -8.0	 0.0	 0.0	 1	    1.04158	    0.00000	 225.0	 1	    1.09649	    0.98667;
	27	 1	 22.0	 -5.6	 0.0	 0.0	 1	    1.00000	    0.00000	 63.0	 1	    1.06349	    0.93651;
	28	 1	 -2.1	 -0.1	 0.0	 0.0	 1	    1.04445	    0.00000	 225.0	 1	    1.08889	    1.00000;
	2574	 1	 39.1	 10.0	 0.0	 0.0	 1	    1.04445	    0.00000	 225.0	 1	    1.08889	    1.00000;
	29	 1	 7.1	 -2.6	 0.0	 0.0	 1	    1.00000	    0.00000	 63.0	 1	    1.06349	    0.93651;
	30	 1	 3.5	 -40.0	 0.0	 0.0	 1	    1.04445	    0.00000	 225.0	 1	    1.08889	    1.00000;
	31	 1	 7.7	 -1.8	 0.0	 0.0	 1	    1.00431	    0.00000	 63.0	 1	    1.07211	    0.93651;
	32	 1	 12.1	 2.1	 0.0	 0.0	 1	    1.00000	    0.00000	 63.0	 1	    1.06349	    0.93651;
	33	 1	 2.4	 -0.4	 0.0	 0.0	 1	    0.94444	    0.00000	 45.0	 1	    1.00000	    0.88889;
	34	 1	 -0.0	 0.0	 0.0	 0.0	 1	    0.94444	    0.00000	 45.0	 1	    1.00000	    0.88889;
	35	 1	 26.0	 0.1	 0.0	 0.0	 1	    1.01587	    0.00000	 63.0	 1	    1.06349	    0.96825;
	36	 1	 0.7	 -4.1	 0.0	 0.0	 1	    0.94444	    0.00000	 45.0	 1	    1.00000	    0.88889;
	37	 1	 9.3	 -5.3	 0.0	 0.0	 1	    1.00000	    0.00000	 63.0	 1	    1.06349	    0.93651;
	39	 1	 78.4	 -4.8	 0.0	 0.0	 1	    1.03800	    0.00000	 225.0	 1	    1.08934	    0.98667;
	40	 1	 25.1	 -3.3	 0.0	 0.0	 1	    0.98889	    0.00000	 225.0	 1	    1.08889	    0.88889;
	41	 1	 80.4	 7.4	 0.0	 0.0	 1	    1.04222	    0.00000	 225.0	 1	    1.08444	    1.00000;
	42	 1	 37.8	 2.9	 0.0	 0.0	 1	    1.00010	    0.00000	 63.0	 1	    1.06370	    0.93651;
	43	 1	 0.0	 0.0	 0.0	 0.0	 1	    1.01111	    0.00000	 225.0	 1	    1.08889	    0.93333;
	44	 1	 29.0	 -10.0	 0.0	 0.0	 1	    1.01587	    0.00000	 63.0	 1	    1.06349	    0.96825;
	45	 1	 97.4	 -3.0	 0.0	 0.0	 1	    1.04445	    0.00000	 225.0	 1	    1.08889	    1.00000;
	46	 1	 0.0	 0.0	 0.0	 0.0	 1	    1.05263	    0.00000	 380.0	 1	    1.10526	    1.00000;
	2575	 1	 0.0	 0.0	 0.0	 0.0	 1	    1.05263	    0.00000	 380.0	 1	    1.10526	    1.00000;
	47	 1	 21.3	 -2.6	 0.0	 0.0	 1	    1.00128	    0.00000	 63.0	 1	    1.06606	    0.93651;
	48	 1	 -0.3	 0.8	 0.0	 0.0	 1	    1.00193	    0.00000	 63.0	 1	    1.06735	    0.93651;
	49	 1	 11.6	 3.2	 0.0	 0.0	 1	    1.01587	    0.00000	 63.0	 1	    1.06349	    0.96825;
	2576	 1	 9.3	 4.7	 0.0	 0.0	 1	    1.01587	    0.00000	 63.0	 1	    1.06349	    0.96825;
	50	 1	 0.0	 0.0	 0.0	 0.0	 1	    1.04222	    0.00000	 225.0	 1	    1.08444	    1.00000;
	51	 1	 66.6	 0.0	 0.0	 0.0	 1	    1.04222	    0.00000	 225.0	 1	    1.08444	    1.00000;
	52	 1	 0.0	 0.0	 0.0	 0.0	 1	    1.04445	    0.00000	 225.0	 1	    1.08889	    1.00000;
	2942	 1	 53.9	 11.2	 0.0	 0.0	 1	    1.04445	    0.00000	 225.0	 1	    1.08889	    1.00000;
	53	 2	 7.9	 -4.7	 0.0	 0.0	 1	    1.01587	    0.00000	 63.0	 1	    1.06349	    0.96825;
	54	 1	 0.0	 0.0	 0.0	 0.0	 1	    1.02333	    0.00000	 150.0	 1	    1.08000	    0.96667;
	55	 1	 40.5	 8.5	 0.0	 0.0	 1	    1.04730	    0.00000	 225.0	 1	    1.09459	    1.00000;
	56	 1	 0.0	 0.0	 0.0	 0.0	 1	    1.05263	    0.00000	 380.0	 1	    1.10526	    1.00000;
	57	 1	 80.2	 -7.7	 0.0	 0.0	 1	    1.03778	    0.00000	 225.0	 1	    1.08889	    0.98667;
	58	 1	 0.0	 0.0	 0.0	 -64.0	 1	    1.00000	    0.00000	 20.0	 1	    1.20000	    0.80000;
	59	 1	 35.3	 -9.2	 0.0	 0.0	 1	    1.02889	    0.00000	 225.0	 1	    1.08889	    0.96889;
	60	 1	 58.9	 2.6	 0.0	 0.0	 1	    1.05263	    0.00000	 380.0	 1	    1.10526	    1.00000;
	61	 1	 5.5	 1.7	 0.0	 0.0	 1	    1.00000	    0.00000	 63.0	 1	    1.06349	    0.93651;
	62	 1	 0.6	 0.7	 0.0	 0.0	 1	    1.01587	    0.00000	 63.0	 1	    1.06349	    0.96825;
	63	 1	 28.6	 4.1	 0.0	 0.0	 1	    1.01587	    0.00000	 63.0	 1	    1.06349	    0.96825;
	2577	 1	 0.0	 0.0	 0.0	 0.0	 1	    1.01587	    0.00000	 63.0	 1	    1.06349	    0.96825;
	64	 1	 39.6	 9.4	 0.0	 0.0	 1	    1.01111	    0.00000	 225.0	 1	    1.08889	    0.93333;
	65	 1	 0.0	 0.0	 0.0	 0.0	 1	    1.01587	    0.00000	 63.0	 1	    1.06349	    0.96825;
	66	 1	 12.5	 -6.5	 0.0	 0.0	 1	    0.94444	    0.00000	 45.0	 1	    1.00000	    0.88889;
	2578	 2	 0.0	 0.0	 0.0	 0.0	 1	    0.94444	    0.00000	 45.0	 1	    1.00000	    0.88889;
	67	 1	 0.4	 3.2	 0.0	 0.0	 1	    0.98889	    0.00000	 225.0	 1	    1.08889	    0.88889;
	2579	 1	 42.5	 7.2	 0.0	 0.0	 1	    0.98889	    0.00000	 225.0	 1	    1.08889	    0.88889;
	68	 1	 4.2	 -2.2	 0.0	 0.0	 1	    1.00000	    0.00000	 20.0	 1	    1.20000	    0.80000;
	69	 1	 139.3	 4.7	 0.0	 0.0	 1	    1.04343	    0.00000	 225.0	 1	    1.08685	    1.00000;
	70	 1	 83.7	 -8.3	 0.0	 0.0	 1	    1.04445	    0.00000	 225.0	 1	    1.08889	    1.00000;
	71	 2	 0.0	 0.0	 0.0	 0.0	 1	    1.00442	    0.00000	 150.0	 1	    1.10885	    0.90000;
	72	 1	 0.0	 0.0	 0.0	 0.0	 1	    1.04445	    0.00000	 225.0	 1	    1.08889	    1.00000;
	2580	 1	 0.0	 0.0	 0.0	 0.0	 1	    1.04445	    0.00000	 225.0	 1	    1.08889	    1.00000;
	74	 1	 0.0	 0.0	 0.0	 -80.0	 1	    1.04445	    0.00000	 225.0	 1	    1.08889	    1.00000;
	75	 1	 15.2	 5.4	 0.0	 0.0	 1	    1.00000	    0.00000	 63.0	 1	    1.06349	    0.93651;
	76	 2	 0.0	 0.0	 0.0	 0.0	 1	    0.94444	    0.00000	 45.0	 1	    1.00000	    0.88889;
	77	 1	 5.7	 -1.3	 0.0	 0.0	 1	    1.00272	    0.00000	 63.0	 1	    1.08481	    0.92063;
	78	 1	 7.8	 5.8	 0.0	 0.0	 1	    1.04445	    0.00000	 225.0	 1	    1.08889	    1.00000;
	79	 1	 14.0	 -4.6	 0.0	 0.0	 1	    1.00000	    0.00000	 63.0	 1	    1.07937	    0.92063;
	80	 1	 7.1	 -2.3	 0.0	 0.0	 1	    1.00404	    0.00000	 63.0	 1	    1.08744	    0.92063;
	81	 1	 0.0	 0.0	 0.0	 0.0	 1	    1.04445	    0.00000	 225.0	 1	    1.08889	    1.00000;
	82	 1	 59.6	 24.0	 0.0	 0.0	 1	    0.98889	    0.00000	 225.0	 1	    1.08889	    0.88889;
	83	 1	 27.8	 -7.5	 0.0	 0.0	 1	    1.01544	    0.00000	 63.0	 1	    1.06349	    0.96740;
	84	 1	 61.1	 -4.5	 0.0	 0.0	 1	    1.02889	    0.00000	 225.0	 1	    1.08889	    0.96889;
	85	 1	 0.0	 0.0	 0.0	 0.0	 1	    1.05263	    0.00000	 380.0	 1	    1.10526	    1.00000;
	86	 1	 31.8	 1.0	 0.0	 0.0	 1	    1.01587	    0.00000	 63.0	 1	    1.06349	    0.96825;
	87	 1	 22.8	 -0.9	 0.0	 0.0	 1	    1.01587	    0.00000	 63.0	 1	    1.06349	    0.96825;
	88	 1	 2.1	 0.8	 0.0	 0.0	 1	    1.01587	    0.00000	 63.0	 1	    1.06349	    0.96825;
	89	 1	 30.5	 6.3	 0.0	 0.0	 1	    1.01587	    0.00000	 63.0	 1	    1.06349	    0.96825;
	2581	 1	 32.0	 12.1	 0.0	 0.0	 1	    1.01587	    0.00000	 63.0	 1	    1.06349	    0.96825;
	90	 1	 0.0	 0.0	 0.0	 0.0	 1	    1.04222	    0.00000	 225.0	 1	    1.08444	    1.00000;
	2582	 1	 0.0	 0.0	 0.0	 0.0	 1	    1.04222	    0.00000	 225.0	 1	    1.08444	    1.00000;
	91	 1	 89.3	 -15.7	 0.0	 0.0	 1	    1.04445	    0.00000	 225.0	 1	    1.08889	    1.00000;
	92	 1	 6.4	 -11.6	 0.0	 0.0	 1	    1.01187	    0.00000	 225.0	 1	    1.09041	    0.93333;
	93	 2	 0.0	 0.0	 0.0	 0.0	 1	    1.00453	    0.00000	 150.0	 1	    1.10907	    0.90000;
	94	 1	 37.7	 57.2	 0.0	 0.0	 1	    1.04222	    0.00000	 225.0	 1	    1.08444	    1.00000;
	2583	 1	 33.4	 -0.5	 0.0	 0.0	 1	    1.04222	    0.00000	 225.0	 1	    1.08444	    1.00000;
	95	 1	 0.0	 0.0	 0.0	 0.0	 1	    1.03333	    0.00000	 225.0	 1	    1.08889	    0.97778;
	96	 1	 9.0	 0.8	 0.0	 0.0	 1	    0.98889	    0.00000	 225.0	 1	    1.08889	    0.88889;
	97	 1	 35.8	 4.5	 0.0	 0.0	 1	    1.01587	    0.00000	 63.0	 1	    1.06349	    0.96825;
	98	 1	 16.5	 -8.7	 0.0	 0.0	 1	    1.01111	    0.00000	 225.0	 1	    1.08889	    0.93333;
	99	 1	 28.6	 5.0	 0.0	 0.0	 1	    1.04445	    0.00000	 225.0	 1	    1.08889	    1.00000;
	2584	 1	 14.5	 3.6	 0.0	 0.0	 1	    1.04445	    0.00000	 225.0	 1	    1.08889	    1.00000;
	100	 1	 7.3	 -5.1	 0.0	 0.0	 1	    1.04445	    0.00000	 225.0	 1	    1.08889	    1.00000;
	101	 1	 6.4	 2.5	 0.0	 0.0	 1	    1.03778	    0.00000	 225.0	 1	    1.08889	    0.98667;
	102	 1	 0.0	 0.0	 0.0	 0.0	 1	    0.98889	    0.00000	 225.0	 1	    1.08889	    0.88889;
	2585	 1	 0.0	 0.0	 0.0	 0.0	 1	    0.98889	    0.00000	 225.0	 1	    1.08889	    0.88889;
	103	 1	 0.0	 0.0	 0.0	 0.0	 1	    1.05263	    0.00000	 380.0	 1	    1.10526	    1.00000;
	104	 1	 45.6	 7.0	 0.0	 0.0	 1	    1.04445	    0.00000	 225.0	 1	    1.08889	    1.00000;
	2586	 1	 19.1	 5.8	 0.0	 -80.0	 1	    1.04445	    0.00000	 225.0	 1	    1.08889	    1.00000;
	105	 1	 10.1	 -0.9	 0.0	 0.0	 1	    1.00000	    0.00000	 63.0	 1	    1.07937	    0.92063;
	106	 1	 0.0	 0.0	 0.0	 0.0	 1	    1.03333	    0.00000	 225.0	 1	    1.08889	    0.97778;
	2587	 1	 0.0	 0.0	 0.0	 0.0	 1	    1.03333	    0.00000	 225.0	 1	    1.08889	    0.97778;
	107	 1	 8.4	 3.5	 0.0	 0.0	 1	    1.01587	    0.00000	 63.0	 1	    1.06349	    0.96825;
	108	 1	 39.7	 -6.4	 0.0	 0.0	 1	    1.04222	    0.00000	 225.0	 1	    1.08444	    1.00000;
	109	 1	 0.0	 0.0	 0.0	 0.0	 1	    1.04222	    0.00000	 225.0	 1	    1.08444	    1.00000;
	110	 1	 0.0	 0.0	 0.0	 0.0	 1	    1.05131	    0.00000	 380.0	 1	    1.10263	    1.00000;
	111	 1	 62.2	 -16.1	 0.0	 0.0	 1	    1.04222	    0.00000	 225.0	 1	    1.08444	    1.00000;
	112	 1	 2.2	 -1.0	 0.0	 0.0	 1	    1.04517	    0.00000	 225.0	 1	    1.09035	    1.00000;
	2588	 1	 12.3	 -2.0	 0.0	 0.0	 1	    1.04517	    0.00000	 225.0	 1	    1.09035	    1.00000;
	113	 1	 5.0	 -3.8	 0.0	 0.0	 1	    0.98889	    0.00000	 225.0	 1	    1.08889	    0.88889;
	114	 1	 30.0	 0.0	 0.0	 0.0	 1	    1.00000	    0.00000	 63.0	 1	    1.06349	    0.93651;
	115	 1	 11.7	 1.8	 0.0	 0.0	 1	    0.98889	    0.00000	 225.0	 1	    1.08889	    0.88889;
	116	 1	 51.9	 15.9	 0.0	 0.0	 1	    0.98889	    0.00000	 225.0	 1	    1.08889	    0.88889;
	117	 1	 2.6	 0.2	 0.0	 0.0	 1	    1.01587	    0.00000	 63.0	 1	    1.06349	    0.96825;
	118	 1	 38.0	 3.1	 0.0	 0.0	 1	    1.00000	    0.00000	 63.0	 1	    1.07937	    0.92063;
	119	 1	 24.0	 -7.3	 0.0	 0.0	 1	    1.01587	    0.00000	 63.0	 1	    1.06349	    0.96825;
	120	 2	 0.0	 0.0	 0.0	 0.0	 1	    1.00257	    0.00000	 63.0	 1	    1.06863	    0.93651;
	121	 1	 8.0	 2.5	 0.0	 0.0	 1	    1.01587	    0.00000	 63.0	 1	    1.06349	    0.96825;
	2589	 1	 9.9	 3.5	 0.0	 0.0	 1	    1.01587	    0.00000	 63.0	 1	    1.06349	    0.96825;
	122	 1	 77.1	 -3.9	 0.0	 0.0	 1	    1.04445	    0.00000	 225.0	 1	    1.08889	    1.00000;
	123	 1	 21.2	 4.4	 0.0	 0.0	 1	    1.00000	    0.00000	 63.0	 1	    1.07937	    0.92063;
	124	 2	 -0.0	 -4.6	 0.0	 0.0	 1	    1.00133	    0.00000	 63.0	 1	    1.08203	    0.92063;
	125	 1	 0.0	 0.0	 0.0	 0.0	 1	    1.00000	    0.00000	 63.0	 1	    1.07937	    0.92063;
	126	 1	 0.0	 0.0	 0.0	 0.0	 1	    1.04445	    0.00000	 225.0	 1	    1.08889	    1.00000;
	127	 1	 0.0	 0.0	 0.0	 0.0	 1	    1.05263	    0.00000	 380.0	 1	    1.10526	    1.00000;
	128	 1	 17.1	 1.5	 0.0	 0.0	 1	    1.00000	    0.00000	 63.0	 1	    1.06349	    0.93651;
	129	 2	 18.2	 12.2	 0.0	 0.0	 1	    1.00000	    0.00000	 63.0	 1	    1.06349	    0.93651;
	130	 1	 -13.2	 16.1	 0.0	 0.0	 1	    1.00000	    0.00000	 63.0	 1	    1.07937	    0.92063;
	131	 1	 0.0	 0.0	 0.0	 0.0	 1	    1.04445	    0.00000	 225.0	 1	    1.08889	    1.00000;
	132	 1	 81.2	 18.3	 0.0	 0.0	 1	    1.04445	    0.00000	 225.0	 1	    1.08889	    1.00000;
	133	 2	 9.6	 3.3	 0.0	 0.0	 1	    1.01682	    0.00000	 63.0	 1	    1.06538	    0.96825;
	134	 2	 0.0	 0.0	 0.0	 0.0	 1	    1.02333	    0.00000	 150.0	 1	    1.08000	    0.96667;
	135	 2	 -8.9	 -4.4	 0.0	 0.0	 1	    1.00000	    0.00000	 63.0	 1	    1.07937	    0.92063;
	136	 1	 -10.6	 -2.1	 0.0	 0.0	 1	    1.03778	    0.00000	 225.0	 1	    1.08889	    0.98667;
	137	 1	 14.1	 -3.7	 0.0	 0.0	 1	    1.01587	    0.00000	 63.0	 1	    1.06349	    0.96825;
	138	 1	 11.3	 -2.7	 0.0	 0.0	 1	    1.04222	    0.00000	 225.0	 1	    1.08444	    1.00000;
	139	 1	 9.4	 -2.2	 0.0	 0.0	 1	    1.01587	    0.00000	 63.0	 1	    1.06349	    0.96825;
	140	 1	 0.0	 0.0	 0.0	 0.0	 1	    1.05263	    0.00000	 380.0	 1	    1.10526	    1.00000;
	2590	 1	 0.0	 0.0	 0.0	 0.0	 1	    1.05263	    0.00000	 380.0	 1	    1.10526	    1.00000;
	141	 1	 11.1	 4.5	 0.0	 0.0	 1	    1.04445	    0.00000	 225.0	 1	    1.08889	    1.00000;
	142	 1	 7.2	 5.2	 0.0	 0.0	 1	    1.04445	    0.00000	 225.0	 1	    1.08889	    1.00000;
	143	 1	 20.9	 -1.3	 0.0	 0.0	 1	    1.01587	    0.00000	 63.0	 1	    1.06349	    0.96825;
	144	 1	 33.4	 6.5	 0.0	 0.0	 1	    1.00000	    0.00000	 150.0	 1	    1.10000	    0.90000;
	145	 1	 61.8	 -3.3	 0.0	 0.0	 1	    1.04462	    0.00000	 225.0	 1	    1.08925	    1.00000;
	146	 2	 0.0	 -0.0	 0.0	 0.0	 1	    1.04445	    0.00000	 225.0	 1	    1.08889	    1.00000;
	147	 1	 0.0	 0.0	 0.0	 0.0	 1	    1.01111	    0.00000	 225.0	 1	    1.08889	    0.93333;
	148	 1	 0.0	 0.0	 0.0	 0.0	 1	    1.05263	    0.00000	 380.0	 1	    1.10526	    1.00000;
	2591	 1	 0.0	 0.0	 0.0	 0.0	 1	    1.05263	    0.00000	 380.0	 1	    1.10526	    1.00000;
	149	 1	 0.0	 0.0	 0.0	 0.0	 1	    1.04445	    0.00000	 225.0	 1	    1.08889	    1.00000;
	2592	 1	 61.8	 10.2	 0.0	 0.0	 1	    1.04445	    0.00000	 225.0	 1	    1.08889	    1.00000;
	150	 1	 0.0	 0.0	 0.0	 0.0	 1	    1.03778	    0.00000	 225.0	 1	    1.08889	    0.98667;
	151	 1	 9.8	 4.5	 0.0	 0.0	 1	    1.04445	    0.00000	 225.0	 1	    1.08889	    1.00000;
	152	 1	 0.0	 0.0	 0.0	 0.0	 1	    1.00000	    0.00000	 20.0	 1	    1.20000	    0.80000;
	153	 1	 88.2	 -7.1	 0.0	 0.0	 1	    1.01111	    0.00000	 225.0	 1	    1.08889	    0.93333;
	154	 1	 0.0	 0.0	 0.0	 0.0	 1	    1.05263	    0.00000	 380.0	 1	    1.10526	    1.00000;
	155	 1	 23.8	 -12.3	 0.0	 0.0	 1	    1.04445	    0.00000	 225.0	 1	    1.08889	    1.00000;
	156	 1	 18.2	 -0.6	 0.0	 0.0	 1	    1.00077	    0.00000	 63.0	 1	    1.06503	    0.93651;
	157	 1	 0.4	 0.2	 0.0	 0.0	 1	    1.01587	    0.00000	 63.0	 1	    1.06349	    0.96825;
	158	 1	 18.7	 -2.5	 0.0	 0.0	 1	    1.00000	    0.00000	 63.0	 1	    1.07937	    0.92063;
	159	 1	 19.2	 -1.0	 0.0	 0.0	 1	    1.01587	    0.00000	 63.0	 1	    1.06349	    0.96825;
	160	 1	 4.0	 0.2	 0.0	 0.0	 1	    1.00000	    0.00000	 63.0	 1	    1.06349	    0.93651;
	161	 2	 0.0	 0.0	 0.0	 0.0	 1	    0.97500	    0.00000	 63.0	 1	    1.15000	    0.80000;
	162	 1	 2.8	 3.9	 0.0	 0.0	 1	    1.04527	    0.00000	 225.0	 1	    1.09053	    1.00000;
	163	 1	 0.0	 0.0	 0.0	 0.0	 1	    1.01587	    0.00000	 63.0	 1	    1.06349	    0.96825;
	164	 1	 68.7	 -27.8	 0.0	 0.0	 1	    1.04895	    0.00000	 225.0	 1	    1.09791	    1.00000;
	165	 1	 70.9	 -7.8	 0.0	 0.0	 1	    1.03778	    0.00000	 225.0	 1	    1.08889	    0.98667;
	166	 1	 35.7	 1.2	 0.0	 0.0	 1	    1.01587	    0.00000	 63.0	 1	    1.06349	    0.96825;
	167	 1	 66.9	 15.7	 0.0	 0.0	 1	    1.04534	    0.00000	 225.0	 1	    1.09067	    1.00000;
	168	 1	 10.2	 -5.9	 0.0	 0.0	 1	    1.00000	    0.00000	 63.0	 1	    1.06349	    0.93651;
	169	 1	 22.5	 -8.3	 0.0	 0.0	 1	    1.01587	    0.00000	 63.0	 1	    1.06349	    0.96825;
	170	 1	 3.1	 1.2	 0.0	 0.0	 1	    1.00236	    0.00000	 63.0	 1	    1.06822	    0.93651;
	171	 1	 103.9	 36.4	 0.0	 0.0	 1	    1.00667	    0.00000	 225.0	 1	    1.08889	    0.92444;
	172	 2	 -0.0	 0.0	 0.0	 0.0	 1	    1.01587	    0.00000	 63.0	 1	    1.06349	    0.96825;
	173	 1	 46.9	 -16.3	 0.0	 0.0	 1	    1.04141	    0.00000	 225.0	 1	    1.09616	    0.98667;
	174	 1	 0.0	 0.0	 0.0	 0.0	 1	    1.05263	    0.00000	 380.0	 1	    1.10526	    1.00000;
	175	 1	 83.4	 -19.9	 0.0	 0.0	 1	    1.04222	    0.00000	 225.0	 1	    1.08444	    1.00000;
	176	 1	 0.0	 0.0	 0.0	 -64.0	 1	    1.00000	    0.00000	 20.0	 1	    1.20000	    0.80000;
	177	 1	 0.0	 0.0	 0.0	 0.0	 1	    1.01217	    0.00000	 63.0	 1	    1.06349	    0.96086;
	178	 1	 0.0	 0.0	 0.0	 0.0	 1	    1.04222	    0.00000	 225.0	 1	    1.08444	    1.00000;
	179	 1	 0.0	 0.0	 0.0	 0.0	 1	    1.05131	    0.00000	 380.0	 1	    1.10263	    1.00000;
...
];

%% generator data
%	bus	Pg	Qg	Qmax	Qmin	Vg	mBase	status	Pmax	Pmin
mpc.gen = [
	1279	 21.0	 0.0	 15.0	 -15.0	 1.044445	 100.0	 1	 35.0	 7.0; % NG
	1210	 21.66	 2.5	 20.0	 -15.0	 1.0	 100.0	 1	 36.1	 7.22; % PEL
	751	 27.6	 6.0	 21.0	 -9.0	 1.0158755	 100.0	 1	 46.0	 9.2; % PEL
	978	 2.0	 0.0	 0.1	 -0.1	 1.0	 100.0	 1	 4.0	 0.0; % NG
	978	 4.2	 0.95	 1.0	 0.9	 1.0	 100.0	 1	 7.0	 1.4; % COW
	158	 1.35	 0.0	 0.0	 0.0	 1.0000025	 100.0	 1	 2.7	 0.0; % PEL
	1217	 7.8	 0.0	 5.0	 -5.0	 1.022612	 100.0	 1	 13.0	 2.6; % NG
	367	 30.0	 9.0	 27.0	 -9.0	 1.0	 100.0	 1	 50.0	 10.0; % NG
	1127	 9.6	 0.0	 0.0	 0.0	 1.015872	 100.0	 1	 16.0	 3.2; % COW
	460	 37.2	 0.0	 40.0	 -40.0	 1.04643	 100.0	 1	 62.0	 12.4; % NG
	968	 10.8	 0.0	 10.0	 -10.0	 1.0000025	 100.0	 1	 18.0	 3.6; % PEL
	1827	 13.2	 -2.5	 7.0	 -12.0	 1.033334	 100.0	 1	 22.0	 4.4; % NG
	1466	 20.5	 -5.0	 5.0	 -15.0	 1.0	 100.0	 1	 40.0	 1.0; % COW
	2863	 20.5	 0.0	 6.0	 -6.0	 1.0	 100.0	 1	 40.0	 1.0; % NG
	1466	 20.5	 -5.0	 5.0	 -15.0	 1.0	 100.0	 1	 40.0	 1.0; % NG
	2863	 20.5	 0.0	 6.0	 -6.0	 1.0	 100.0	 1	 40.0	 1.0; % NG
	1072	 7.2	 0.95	 1.0	 0.9	 1.00445	 100.0	 1	 12.0	 2.4; % COW
	1072	 0.0	 0.0	 1.0	 0.9	 1.00445	 100.0	 0	 14.0	 2.8; % NG
	1072	 7.2	 0.95	 1.0	 0.9	 1.00445	 100.0	 1	 12.0	 2.4; % COW
	642	 6.2	 0.0	 3.0	 -3.0	 1.021212	 100.0	 1	 10.33	 2.07; % PEL
	642	 6.2	 0.0	 3.0	 -3.0	 1.021212	 100.0	 1	 10.33	 2.07; % COW
	542	 27.5	 6.0	 22.0	 -10.0	 1.015872	 100.0	 1	 50.0	 5.0; % PEL
	773	 7.2	 0.0	 0.0	 0.0	 1.0000025	 100.0	 1	 12.0	 2.4; % NG
	399	 8.28	 0.0	 0.0	 0.0	 1.015872	 100.0	 1	 13.8	 2.76; % NG
	399	 0.6	 0.0	 0.0	 0.0	 1.015872	 100.0	 1	 1.2	 0.0; % PEL
	21	 14.4	 0.0	 0.0	 0.0	 0.9888895	 100.0	 1	 24.0	 4.8; % NG
	21	 16.56	 0.0	 0.0	 0.0	 0.9888895	 100.0	 1	 27.6	 5.52; % NG
	899	 10.8	 0.0	 0.0	 0.0	 1.000709	 100.0	 1	 18.0	 3.6; % NG
	899	 12.6	 0.0	 0.0	 0.0	 1.000709	 100.0	 1	 21.0	 4.2; % NG
	2618	 3.6	 0.0	 0.0	 0.0	 0.999999	 100.0	 1	 6.0	 1.2; % NG
	2618	 22.5	 2.0	 10.0	 -6.0	 0.999999	 100.0	 1	 37.5	 7.5; % PEL
	285	 3.6	 0.0	 0.0	 0.0	 0.999999	 100.0	 1	 6.0	 1.2; % COW
	285	 22.5	 2.0	 10.0	 -6.0	 0.999999	 100.0	 1	 37.5	 7.5; % PEL
	135	 7.8	 -0.5	 5.0	 -6.0	 1.0000025	 100.0	 1	 13.0	 2.6; % NG
	53	 10.8	 0.0	 0.8	 -0.8	 1.015872	 100.0	 1	 18.0	 3.6; % NG
	53	 10.8	 0.0	 0.8	 -0.8	 1.015872	 100.0	 1	 18.0	 3.6; % COW
	596	 2.0	 0.0	 0.0	 0.0	 1.04598	 100.0	 1	 4.0	 0.0; % NG
	958	 2.3	 0.0	 0.0	 0.0	 0.975	 100.0	 1	 4.6	 0.0; % PEL
	1679	 12.6	 1.0	 6.0	 -4.0	 1.0	 100.0	 1	 21.0	 4.2; % NG
	1679	 12.6	 1.1	 6.7	 -4.5	 1.0	 100.0	 1	 21.0	 4.2; % PEL
	1157	 4.32	 0.0	 0.0	 0.0	 1.015872	 100.0	 1	 7.2	 1.44; % PEL
	513	 6.6	 3.0	 5.0	 1.0	 1.0	 100.0	 1	 11.0	 2.2; % NG
	513	 6.6	 3.0	 5.0	 1.0	 1.0	 100.0	 1	 11.0	 2.2; % NG
	371	 4.8	 0.0	 5.0	 -5.0	 0.999999	 100.0	 1	 8.0	 1.6; % COW
	371	 4.8	 0.0	 5.0	 -5.0	 0.999999	 100.0	 1	 8.0	 1.6; % PEL
	976	 21.0	 -1.5	 12.0	 -15.0	 1.015872	 100.0	 1	 35.0	 7.0; % PEL
	976	 21.0	 -1.5	 12.0	 -15.0	 1.015872	 100.0	 1	 35.0	 7.0; % NG
	2754	 6.9	 0.0	 0.0	 0.0	 1.019477	 100.0	 1	 11.5	 2.3; % NG
	749	 5.1	 0.0	 5.0	 -5.0	 0.9444445	 100.0	 1	 8.5	 1.7; % NG
	1188	 12.0	 1.95	 2.0	 1.9	 1.004635	 100.0	 1	 20.0	 4.0; % NG
	1254	 14.4	 0.0	 7.0	 -7.0	 1.001289	 100.0	 1	 24.0	 4.8; % PEL
	252	 6.6	 1.5	 8.0	 -5.0	 0.9444445	 100.0	 1	 11.0	 2.2; % NG
	252	 5.4	 0.5	 6.0	 -5.0	 0.9444445	 100.0	 1	 9.0	 1.8; % PEL
	252	 6.6	 1.5	 8.0	 -5.0	 0.9444445	 100.0	 1	 11.0	 2.2; % PEL
	252	 5.4	 0.5	 6.0	 -5.0	 0.9444445	 100.0	 1	 9.0	 1.8; % NG
	504	 7.44	 0.0	 6.5	 -6.5	 0.9445145	 100.0	 1	 12.4	 2.48; % NG
	115	 15.18	 0.0	 0.0	 0.0	 0.9888895	 100.0	 1	 25.3	 5.06; % COW
	967	 1.15	 0.0	 0.0	 0.0	 1.0000025	 100.0	 1	 2.3	 0.0; % PEL
	1642	 1.5	 0.0	 1.0	 -1.0	 1.017742	 100.0	 1	 3.0	 0.0; % PEL
	1811	 5.4	 0.0	 5.5	 -5.5	 1.003809	 100.0	 1	 9.0	 1.8; % NG
	2634	 8.4	 0.0	 7.0	 -7.0	 1.0000025	 100.0	 1	 14.0	 2.8; % PEL
	326	 8.4	 0.0	 7.0	 -7.0	 1.0000025	 100.0	 1	 14.0	 2.8; % NG
	1829	 7.68	 0.0	 7.7	 -7.7	 0.999999	 100.0	 1	 12.8	 2.56; % NG
	1314	 23.4	 0.0	 19.0	 -19.0	 1.005695	 100.0	 1	 39.0	 7.8; % NG
	71	 18.0	 3.0	 10.0	 -4.0	 1.004425	 100.0	 1	 30.0	 6.0; % PEL
	93	 3.6	 1.95	 2.0	 1.9	 1.004535	 100.0	 1	 6.0	 1.2; % NG
	129	 6.6	 0.0	 4.0	 -4.0	 0.999999	 100.0	 1	 11.0	 2.2; % NG
	1594	 7.2	 0.0	 5.0	 -5.0	 1.021962	 100.0	 1	 12.0	 2.4; % PEL
	1594	 7.2	 0.0	 5.0	 -5.0	 1.021962	 100.0	 1	 12.0	 2.4; % NG
	1354	 2.5	 0.0	 2.0	 -2.0	 1.015872	 100.0	 1	 5.0	 0.0; % PEL
	1133	 10.35	 0.0	 0.0	 0.0	 1.015872	 100.0	 1	 17.25	 3.45; % PEL
	1405	 22.68	 2.0	 12.0	 -8.0	 1.0	 100.0	 1	 37.8	 7.56; % PEL
	2850	 22.68	 2.0	 12.0	 -8.0	 1.0	 100.0	 1	 37.8	 7.56; % NG
	2849	 22.68	 2.0	 12.0	 -8.0	 1.0	 100.0	 1	 37.8	 7.56; % NG
	1122	 4.14	 0.0	 0.0	 0.0	 1.015872	 100.0	 1	 6.9	 1.38; % PEL
	1708	 44.5	 9.0	 27.0	 -9.0	 1.0377785	 100.0	 1	 45.0	 44.0; % COW
	1708	 44.5	 9.0	 27.0	 -9.0	 1.0377785	 100.0	 1	 45.0	 44.0; % PEL
	1658	 17.94	 0.0	 0.0	 0.0	 1.0000025	 100.0	 1	 29.9	 5.98; % PEL
	2884	 8.22	 0.0	 0.0	 0.0	 1.0000025	 100.0	 1	 13.7	 2.74; % COW
	1154	 12.48	 0.0	 0.0	 0.0	 0.999999	 100.0	 1	 20.8	 4.16; % PEL
	231	 4.98	 0.0	 8.3	 -8.3	 1.0111115	 100.0	 1	 8.3	 1.66; % NG
	2887	 14.22	 2.0	 7.0	 -3.0	 1.0	 100.0	 1	 23.7	 4.74; % PEL
	2888	 14.22	 2.0	 7.0	 -3.0	 1.0	 100.0	 1	 23.7	 4.74; % NG
	2889	 14.22	 2.0	 7.0	 -3.0	 1.0	 100.0	 1	 23.7	 4.74; % PEL
	1666	 14.22	 2.0	 7.0	 -3.0	 1.0	 100.0	 1	 23.7	 4.74; % PEL
	499	 10.2	 0.95	 1.0	 0.9	 1.0287175	 100.0	 1	 17.0	 3.4; % PEL
	499	 0.0	 0.0	 1.0	 0.9	 1.0287175	 100.0	 0	 7.0	 1.4; % COW
	499	 10.2	 0.95	 1.0	 0.9	 1.0287175	 100.0	 1	 17.0	 3.4; % NG
	2709	 14.4	 0.0	 4.0	 -4.0	 1.0	 100.0	 1	 24.0	 4.8; % PEL
	709	 14.4	 0.0	 4.0	 -4.0	 1.0	 100.0	 1	 24.0	 4.8; % NG
	2710	 14.4	 0.0	 4.0	 -4.0	 1.0	 100.0	 1	 24.0	 4.8; % COW
	2708	 14.4	 0.0	 4.0	 -4.0	 1.0	 100.0	 1	 24.0	 4.8; % PEL
	1280	 10.8	 0.0	 0.0	 0.0	 1.001694	 100.0	 1	 18.0	 3.6; % PEL
	1493	 0.0	 0.0	 11.0	 -11.0	 0.9444445	 100.0	 0	 18.0	 3.6; % PEL
	745	 17.4	 -5.0	 8.0	 -18.0	 0.999999	 100.0	 1	 29.0	 5.8; % NG
	2727	 17.4	 -6.5	 5.0	 -18.0	 0.999999	 100.0	 1	 29.0	 5.8; % PEL
	1445	 33.0	 0.0	 0.0	 0.0	 1.026667	 100.0	 1	 55.0	 11.0; % NG
	564	 6.0	 0.0	 0.0	 0.0	 1.015872	 100.0	 1	 10.0	 2.0; % NG
	1047	 7.2	 0.0	 0.0	 0.0	 1.000539	 100.0	 1	 12.0	 2.4; % PEL
	1047	 1.0	 0.0	 0.0	 0.0	 1.000539	 100.0	 1	 2.0	 0.0; % PEL
	1335	 1.0	 1.0	 3.0	 -1.0	 1.003809	 100.0	 1	 2.0	 0.0; % PEL
	2624	 18.6	 -1.0	 15.0	 -17.0	 1.0	 100.0	 1	 31.0	 6.2; % PEL
	298	 18.6	 -1.0	 15.0	 -17.0	 1.0	 100.0	 1	 31.0	 6.2; % NG
	298	 18.6	 -1.0	 15.0	 -17.0	 1.0	 100.0	 1	 31.0	 6.2; % NG
	2625	 18.6	 -1.0	 15.0	 -17.0	 1.0	 100.0	 1	 31.0	 6.2; % NG
	2625	 18.6	 -1.0	 15.0	 -17.0	 1.0	 100.0	 1	 31.0	 6.2; % PEL
	2624	 18.6	 -1.0	 15.0	 -17.0	 1.0	 100.0	 1	 31.0	 6.2; % PEL
	2947	 14.4	 -0.005	 0.0	 -0.01	 1.0	 100.0	 1	 24.0	 4.8; % PEL
	2718	 14.4	 0.5	 8.0	 -7.0	 1.0	 100.0	 1	 24.0	 4.8; % PEL
	2720	 14.4	 0.5	 8.0	 -7.0	 1.0	 100.0	 1	 24.0	 4.8; % NG
	741	 14.4	 0.5	 8.0	 -7.0	 1.0	 100.0	 1	 24.0	 4.8; % COW
	2719	 14.4	 0.5	 8.0	 -7.0	 1.0	 100.0	 1	 24.0	 4.8; % PEL
	2721	 14.4	 0.5	 8.0	 -7.0	 1.0	 100.0	 1	 24.0	 4.8; % NG
	283	 14.1	 0.0	 8.0	 -8.0	 0.9888895	 100.0	 1	 23.5	 4.7; % PEL
	1506	 16.2	 -2.5	 6.0	 -11.0	 1.016412	 100.0	 1	 27.0	 5.4; % PEL
	1506	 16.2	 -2.5	 6.0	 -11.0	 1.016412	 100.0	 1	 27.0	 5.4; % PEL
	1847	 19.2	 2.0	 12.0	 -8.0	 1.015872	 100.0	 1	 32.0	 6.4; % PEL
	1398	 12.01	 0.0	 0.0	 0.0	 1.0000025	 100.0	 1	 20.02	 4.0; % PEL
	1398	 12.21	 0.0	 0.0	 0.0	 1.0000025	 100.0	 1	 20.35	 4.07; % NG
	225	 27.0	 0.0	 45.0	 -45.0	 1.0	 100.0	 1	 45.0	 9.0; % PEL
	225	 27.0	 0.0	 45.0	 -45.0	 1.0	 100.0	 1	 45.0	 9.0; % NG
	1607	 0.87	 0.0	 0.0	 0.0	 1.0000025	 100.0	 1	 1.74	 0.0; % PEL
	314	 12.0	 0.0	 10.0	 -10.0	 0.9448795	 100.0	 1	 20.0	 4.0; % NG
	2680	 141.5	 20.0	 100.0	 -60.0	 1.0	 100.0	 1	 239.0	 44.0; % COW
	582	 0.0	 0.0	 70.0	 -45.0	 1.0	 100.0	 0	 169.0	 82.0; % PEL
	2978	 0.0	 0.0	 70.0	 -45.0	 1.0	 100.0	 0	 169.0	 82.0; % NG
	2977	 141.5	 20.0	 100.0	 -60.0	 1.0	 100.0	 1	 239.0	 44.0; % NG
	240	 143.4	 2.5	 80.0	 -75.0	 1.05347	 100.0	 1	 239.0	 47.8; % NG
	1655	 7.2	 0.0	 0.0	 0.0	 0.999999	 100.0	 1	 12.0	 2.4; % PEL
	1655	 2.0	 0.0	 0.0	 0.0	 0.999999	 100.0	 1	 4.0	 0.0; % NG
	1150	 32.4	 0.0	 0.0	 0.0	 1.0377785	 100.0	 1	 54.0	 10.8; % NG
	1447	 4.2	 -0.5	 2.0	 -3.0	 1.015872	 100.0	 1	 7.0	 1.4; % PEL
	906	 0.0	 0.0	 8.0	 -8.0	 1.04623	 100.0	 0	 21.0	 4.2; % PEL
	1474	 0.0	 -0.0	 1.0	 -1.0	 1.015872	 100.0	 0	 2.0	 0.0; % PEL
	1474	 4.8	 0.0	 3.0	 -3.0	 1.015872	 100.0	 1	 8.0	 1.6; % PEL
	1474	 4.8	 0.0	 3.0	 -3.0	 1.015872	 100.0	 1	 8.0	 1.6; % COW
	963	 5.34	 -0.5	 1.0	 -2.0	 1.015872	 100.0	 1	 8.9	 1.78; % NG
	962	 13.2	 0.0	 0.0	 0.0	 1.0000025	 100.0	 1	 22.0	 4.4; % NG
	923	 7.2	 0.0	 5.0	 -5.0	 1.015872	 100.0	 1	 12.0	 2.4; % NG
	1153	 9.6	 0.0	 17.3	 -17.3	 1.001654	 100.0	 1	 16.0	 3.2; % PEL
	1153	 10.08	 0.0	 10.0	 -10.0	 1.001654	 100.0	 1	 16.8	 3.36; % PEL
	274	 4.02	 0.0	 3.7	 -3.7	 0.999999	 100.0	 1	 6.7	 1.34; % NG
	274	 3.36	 0.0	 3.0	 -3.0	 0.999999	 100.0	 1	 5.6	 1.12; % NG
	1776	 6.0	 0.0	 5.0	 -5.0	 1.015872	 100.0	 1	 10.0	 2.0; % NG
	1776	 6.0	 0.0	 5.0	 -5.0	 1.015872	 100.0	 1	 10.0	 2.0; % NG
	184	 14.04	 -4.5	 8.0	 -17.0	 1.033334	 100.0	 1	 23.4	 4.68; % NG
	1657	 15.6	 -0.5	 16.0	 -17.0	 1.0233335	 100.0	 1	 26.0	 5.2; % NG
	1657	 15.6	 -0.5	 16.0	 -17.0	 1.0233335	 100.0	 1	 26.0	 5.2; % PEL
	1761	 1.25	 0.0	 0.1	 -0.1	 1.00445	 100.0	 1	 2.5	 0.0; % PEL
	1761	 6.6	 0.95	 1.0	 0.9	 1.00445	 100.0	 1	 11.0	 2.2; % NG
	1868	 18.0	 0.0	 18.0	 -18.0	 0.999999	 100.0	 1	 30.0	 6.0; % PEL
	1868	 18.0	 0.0	 18.0	 -18.0	 0.999999	 100.0	 1	 30.0	 6.0; % NG
	731	 0.0	 0.0	 26.0	 -26.0	 0.999999	 100.0	 0	 43.0	 8.6; % COW
	2715	 0.0	 0.0	 20.0	 -20.0	 0.999999	 100.0	 0	 38.0	 7.6; % NG
	1263	 13.86	 0.0	 14.0	 -14.0	 0.999999	 100.0	 1	 23.1	 4.62; % PEL
	1263	 13.86	 0.0	 14.0	 -14.0	 0.999999	 100.0	 1	 23.1	 4.62; % PEL
	161	 10.8	 0.0	 5.0	 -5.0	 0.975	 100.0	 1	 18.0	 3.6; % PEL
	604	 6.12	 0.0	 6.0	 -6.0	 0.999999	 100.0	 1	 10.2	 2.04; % NG
	918	 15.6	 0.0	 0.0	 0.0	 1.0000025	 100.0	 1	 26.0	 5.2; % COW
	1760	 6.9	 0.0	 1.0	 -1.0	 1.0013775	 100.0	 1	 11.5	 2.3; % NG
	1760	 6.9	 0.0	 1.0	 -1.0	 1.0013775	 100.0	 1	 11.5	 2.3; % NG
	1414	 7.8	 0.0	 7.8	 -7.8	 0.999999	 100.0	 1	 13.0	 2.6; % NG
	1414	 7.2	 0.0	 7.2	 -7.2	 0.999999	 100.0	 1	 12.0	 2.4; % PEL
	662	 24.0	 1.0	 20.0	 -18.0	 1.0	 100.0	 1	 40.0	 8.0; % NG
	2697	 24.0	 1.0	 20.0	 -18.0	 1.0	 100.0	 1	 40.0	 8.0; % NG
	2696	 24.0	 1.0	 20.0	 -18.0	 1.0	 100.0	 1	 40.0	 8.0; % NG
	1346	 7.2	 0.0	 7.0	 -7.0	 0.999999	 100.0	 1	 12.0	 2.4; % NG
	1346	 7.2	 0.0	 7.0	 -7.0	 0.999999	 100.0	 1	 12.0	 2.4; % NG
	2622	 4.8	 0.0	 26.0	 -26.0	 1.0	 100.0	 1	 8.0	 1.6; % NG
	2622	 9.0	 0.0	 26.0	 -26.0	 1.0	 100.0	 1	 15.0	 3.0; % NG
	291	 11.4	 0.0	 26.0	 -26.0	 1.0	 100.0	 1	 19.0	 3.8; % PEL
	1490	 6.36	 0.0	 6.5	 -6.5	 0.999999	 100.0	 1	 10.6	 2.12; % NG
	1671	 12.84	 0.0	 15.0	 -15.0	 1.0158755	 100.0	 1	 21.4	 4.28; % NG
	1615	 0.0	 0.0	 24.0	 -24.0	 0.999999	 100.0	 0	 39.0	 7.8; % COW
	1681	 52.2	 0.87	 26.1	 -24.36	 1.044445	 100.0	 1	 87.0	 17.4; % COW
	418	 45.0	 5.0	 50.0	 -40.0	 1.0	 100.0	 1	 75.0	 15.0; % PEL
	2658	 45.0	 5.0	 50.0	 -40.0	 1.0	 100.0	 1	 75.0	 15.0; % NG
	418	 45.0	 5.0	 50.0	 -40.0	 1.0	 100.0	 1	 75.0	 15.0; % NG
	2658	 45.0	 5.0	 50.0	 -40.0	 1.0	 100.0	 1	 75.0	 15.0; % PEL
	461	 24.84	 0.415	 12.42	 -11.59	 1.044445	 100.0	 1	 41.4	 8.28; % NG
	31	 4.01	 0.0	 0.0	 0.0	 1.004309	 100.0	 1	 6.68	 1.34; % NG
	236	 9.0	 3.5	 7.0	 0.0	 1.015872	 100.0	 1	 15.0	 3.0; % PEL
	236	 9.0	 3.5	 7.0	 0.0	 1.015872	 100.0	 1	 15.0	 3.0; % PEL
	1754	 0.5	 0.0	 1.0	 -1.0	 1.015872	 100.0	 1	 1.0	 0.0; % PEL
	1754	 0.5	 0.0	 1.0	 -1.0	 1.015872	 100.0	 1	 1.0	 0.0; % PEL
	1754	 0.5	 0.0	 1.0	 -1.0	 1.015872	 100.0	 1	 1.0	 0.0; % PEL
	898	 0.85	 0.0	 0.0	 0.0	 1.001324	 100.0	 1	 1.7	 0.0; % NG
	898	 13.56	 0.0	 0.0	 0.0	 1.001324	 100.0	 1	 22.6	 4.52; % NG
	120	 9.0	 0.0	 9.0	 -9.0	 1.002569	 100.0	 1	 15.0	 3.0; % NG
	549	 27.5	 6.0	 22.0	 -10.0	 1.015872	 100.0	 1	 50.0	 5.0; % NG
	77	 14.1	 0.0	 0.0	 0.0	 1.0027225	 100.0	 1	 23.5	 4.7; % PEL
	124	 -3.5	 0.0	 0.0	 0.0	 1.0013325	 100.0	 1	 0.0	 -7.0; % SYNC
	124	 -3.5	 0.0	 0.0	 0.0	 1.0013325	 100.0	 1	 0.0	 -7.0; % SYNC
	552	 12.6	 0.0	 0.0	 0.0	 1.015872	 100.0	 1	 21.0	 4.2; % NG
	1858	 5.76	 0.0	 6.0	 -6.0	 0.9444445	 100.0	 1	 9.6	 1.92; % COW
	134	 15.0	 2.0	 13.0	 -9.0	 1.0233335	 100.0	 1	 25.0	 5.0; % PEL
	1204	 25.2	 2.5	 25.0	 -20.0	 1.00031	 100.0	 1	 42.0	 8.4; % NG
	1204	 25.2	 2.5	 25.0	 -20.0	 1.00031	 100.0	 1	 42.0	 8.4; % NG
	641	 6.6	 0.0	 5.0	 -5.0	 1.015872	 100.0	 1	 11.0	 2.2; % NG
	641	 6.6	 0.0	 5.0	 -5.0	 1.015872	 100.0	 1	 11.0	 2.2; % NG
...
];

%% generator cost data
%	2	startup	shutdown	n	c(n-1)	...	c0
mpc.gencost = [
2	0.0	0.0	3	0.2	44.799484	0.000000;	%	NG
2	0.0	0.0	3	0.2	103.296155	0.000000;	%	PEL
2	0.0	0.0	3	0.2	133.455196	0.000000;	%	PEL
2	0.0	0.0	3	0.2	34.971862	0.000000;	%	NG
2	0.0	0.0	3	0.2	16.008364	0.000000;	%	COW
2	0.0	0.0	3	0.2	102.186830	0.000000;	%	PEL
2	0.0	0.0	3	0.2	15.953518	0.000000;	%	NG
2	0.0	0.0	3	0.2	32.141291	0.000000;	%	NG
2	0.0	0.0	3	0.2	29.183767	0.000000;	%	COW
2	0.0	0.0	3	0.2	23.853833	0.000000;	%	NG
2	0.0	0.0	3	0.2	118.582641	0.000000;	%	PEL
2	0.0	0.0	3	0.2	30.823457	0.000000;	%	NG
2	0.0	0.0	3	0.2	33.549390	0.000000;	%	COW
2	0.0	0.0	3	0.2	39.990137	0.000000;	%	NG
2	0.0	0.0	3	0.2	47.299290	0.000000;	%	NG
2	0.0	0.0	3	0.2	28.709766	0.000000;	%	NG
2	0.0	0.0	3	0.2	19.392425	0.000000;	%	COW
2	0.0	0.0	3	0.2	26.184513	0.000000;	%	NG
2	0.0	0.0	3	0.2	33.437829	0.000000;	%	COW
2	0.0	0.0	3	0.2	108.330250	0.000000;	%	PEL
2	0.0	0.0	3	0.2	26.230713	0.000000;	%	COW
2	0.0	0.0	3	0.2	103.635089	0.000000;	%	PEL
2	0.0	0.0	3	0.2	24.241333	0.000000;	%	NG
2	0.0	0.0	3	0.2	29.153992	0.000000;	%	NG
2	0.0	0.0	3	0.2	124.946912	0.000000;	%	PEL
2	0.0	0.0	3	0.2	68.707038	0.000000;	%	NG
2	0.0	0.0	3	0.2	26.704666	0.000000;	%	NG
2	0.0	0.0	3	0.2	27.882410	0.000000;	%	NG
2	0.0	0.0	3	0.2	3.122472	0.000000;	%	NG
2	0.0	0.0	3	0.2	60.036951	0.000000;	%	NG
2	0.0	0.0	3	0.2	111.709549	0.000000;	%	PEL
2	0.0	0.0	3	0.2	23.931234	0.000000;	%	COW
2	0.0	0.0	3	0.2	95.991511	0.000000;	%	PEL
2	0.0	0.0	3	0.2	28.164012	0.000000;	%	NG
2	0.0	0.0	3	0.2	23.898663	0.000000;	%	NG
2	0.0	0.0	3	0.2	29.990273	0.000000;	%	COW
2	0.0	0.0	3	0.2	21.640102	0.000000;	%	NG
2	0.0	0.0	3	0.2	99.501055	0.000000;	%	PEL
2	0.0	0.0	3	0.2	42.286445	0.000000;	%	NG
2	0.0	0.0	3	0.2	107.620861	0.000000;	%	PEL
2	0.0	0.0	3	0.2	125.453061	0.000000;	%	PEL
2	0.0	0.0	3	0.2	28.264565	0.000000;	%	NG
2	0.0	0.0	3	0.2	28.379323	0.000000;	%	NG
2	0.0	0.0	3	0.2	28.436306	0.000000;	%	COW
2	0.0	0.0	3	0.2	103.391635	0.000000;	%	PEL
2	0.0	0.0	3	0.2	127.850488	0.000000;	%	PEL
2	0.0	0.0	3	0.2	43.820274	0.000000;	%	NG
2	0.0	0.0	3	0.2	47.760568	0.000000;	%	NG
2	0.0	0.0	3	0.2	47.344597	0.000000;	%	NG
2	0.0	0.0	3	0.2	37.770921	0.000000;	%	NG
2	0.0	0.0	3	0.2	114.570030	0.000000;	%	PEL
2	0.0	0.0	3	0.2	32.013476	0.000000;	%	NG
2	0.0	0.0	3	0.2	99.587093	0.000000;	%	PEL
2	0.0	0.0	3	0.2	119.827760	0.000000;	%	PEL
2	0.0	0.0	3	0.2	9.006238	0.000000;	%	NG
2	0.0	0.0	3	0.2	31.739316	0.000000;	%	NG
2	0.0	0.0	3	0.2	36.171553	0.000000;	%	COW
2	0.0	0.0	3	0.2	128.098168	0.000000;	%	PEL
2	0.0	0.0	3	0.2	97.377789	0.000000;	%	PEL
2	0.0	0.0	3	0.2	57.036401	0.000000;	%	NG
2	0.0	0.0	3	0.2	116.415321	0.000000;	%	PEL
2	0.0	0.0	3	0.2	33.024981	0.000000;	%	NG
2	0.0	0.0	3	0.2	30.752053	0.000000;	%	NG
2	0.0	0.0	3	0.2	33.988394	0.000000;	%	NG
2	0.0	0.0	3	0.2	99.494826	0.000000;	%	PEL
2	0.0	0.0	3	0.2	37.844010	0.000000;	%	NG
2	0.0	0.0	3	0.2	25.499729	0.000000;	%	NG
2	0.0	0.0	3	0.2	102.949110	0.000000;	%	PEL
2	0.0	0.0	3	0.2	11.961915	0.000000;	%	NG
2	0.0	0.0	3	0.2	101.523604	0.000000;	%	PEL
2	0.0	0.0	3	0.2	104.377305	0.000000;	%	PEL
2	0.0	0.0	3	0.2	108.463193	0.000000;	%	PEL
2	0.0	0.0	3	0.2	37.951754	0.000000;	%	NG
2	0.0	0.0	3	0.2	34.833311	0.000000;	%	NG
2	0.0	0.0	3	0.2	115.578599	0.000000;	%	PEL
2	0.0	0.0	3	0.2	14.427786	0.000000;	%	COW
2	0.0	0.0	3	0.2	120.524875	0.000000;	%	PEL
2	0.0	0.0	3	0.2	124.985551	0.000000;	%	PEL
2	0.0	0.0	3	0.2	19.400343	0.000000;	%	COW
2	0.0	0.0	3	0.2	90.373394	0.000000;	%	PEL
2	0.0	0.0	3	0.2	20.052340	0.000000;	%	NG
2	0.0	0.0	3	0.2	107.933814	0.000000;	%	PEL
2	0.0	0.0	3	0.2	22.005869	0.000000;	%	NG
2	0.0	0.0	3	0.2	116.828596	0.000000;	%	PEL
2	0.0	0.0	3	0.2	100.566682	0.000000;	%	PEL
2	0.0	0.0	3	0.2	104.746350	0.000000;	%	PEL
2	0.0	0.0	3	0.2	25.791232	0.000000;	%	COW
2	0.0	0.0	3	0.2	33.981563	0.000000;	%	NG
2	0.0	0.0	3	0.2	109.189943	0.000000;	%	PEL
2	0.0	0.0	3	0.2	21.397310	0.000000;	%	NG
2	0.0	0.0	3	0.2	33.295795	0.000000;	%	COW
2	0.0	0.0	3	0.2	104.462662	0.000000;	%	PEL
2	0.0	0.0	3	0.2	103.558096	0.000000;	%	PEL
2	0.0	0.0	3	0.2	114.531843	0.000000;	%	PEL
2	0.0	0.0	3	0.2	38.571527	0.000000;	%	NG
2	0.0	0.0	3	0.2	107.259574	0.000000;	%	PEL
2	0.0	0.0	3	0.2	41.652072	0.000000;	%	NG
2	0.0	0.0	3	0.2	36.465111	0.000000;	%	NG
2	0.0	0.0	3	0.2	104.247680	0.000000;	%	PEL
2	0.0	0.0	3	0.2	119.116253	0.000000;	%	PEL
2	0.0	0.0	3	0.2	110.375312	0.000000;	%	PEL
2	0.0	0.0	3	0.2	114.402174	0.000000;	%	PEL
2	0.0	0.0	3	0.2	26.042437	0.000000;	%	NG
2	0.0	0.0	3	0.2	52.028607	0.000000;	%	NG
2	0.0	0.0	3	0.2	27.225852	0.000000;	%	NG
2	0.0	0.0	3	0.2	106.469686	0.000000;	%	PEL
2	0.0	0.0	3	0.2	121.847544	0.000000;	%	PEL
2	0.0	0.0	3	0.2	108.458154	0.000000;	%	PEL
2	0.0	0.0	3	0.2	106.396544	0.000000;	%	PEL
2	0.0	0.0	3	0.2	24.492020	0.000000;	%	NG
2	0.0	0.0	3	0.2	20.020401	0.000000;	%	COW
2	0.0	0.0	3	0.2	121.534834	0.000000;	%	PEL
2	0.0	0.0	3	0.2	20.892690	0.000000;	%	NG
2	0.0	0.0	3	0.2	98.444260	0.000000;	%	PEL
2	0.0	0.0	3	0.2	128.595595	0.000000;	%	PEL
2	0.0	0.0	3	0.2	92.822681	0.000000;	%	PEL
2	0.0	0.0	3	0.2	111.253342	0.000000;	%	PEL
2	0.0	0.0	3	0.2	112.169112	0.000000;	%	PEL
2	0.0	0.0	3	0.2	18.465033	0.000000;	%	NG
2	0.0	0.0	3	0.2	116.124143	0.000000;	%	PEL
2	0.0	0.0	3	0.2	38.326755	0.000000;	%	NG
2	0.0	0.0	3	0.2	114.380245	0.000000;	%	PEL
2	0.0	0.0	3	0.2	40.389120	0.000000;	%	NG
2	0.0	0.0	3	0.2	29.373328	0.000000;	%	COW
2	0.0	0.0	3	0.2	102.044459	0.000000;	%	PEL
2	0.0	0.0	3	0.2	32.945699	0.000000;	%	NG
2	0.0	0.0	3	0.2	20.577052	0.000000;	%	NG
2	0.0	0.0	3	0.2	51.797149	0.000000;	%	NG
2	0.0	0.0	3	0.2	108.075500	0.000000;	%	PEL
2	0.0	0.0	3	0.2	26.536594	0.000000;	%	NG
2	0.0	0.0	3	0.2	30.544208	0.000000;	%	NG
2	0.0	0.0	3	0.2	121.489265	0.000000;	%	PEL
2	0.0	0.0	3	0.2	96.092215	0.000000;	%	PEL
2	0.0	0.0	3	0.2	104.520289	0.000000;	%	PEL
2	0.0	0.0	3	0.2	102.476900	0.000000;	%	PEL
2	0.0	0.0	3	0.2	18.523867	0.000000;	%	COW
2	0.0	0.0	3	0.2	5.901389	0.000000;	%	NG
2	0.0	0.0	3	0.2	51.452745	0.000000;	%	NG
2	0.0	0.0	3	0.2	22.105878	0.000000;	%	NG
2	0.0	0.0	3	0.2	109.945515	0.000000;	%	PEL
2	0.0	0.0	3	0.2	95.652767	0.000000;	%	PEL
2	0.0	0.0	3	0.2	25.249984	0.000000;	%	NG
2	0.0	0.0	3	0.2	25.431253	0.000000;	%	NG
2	0.0	0.0	3	0.2	40.295404	0.000000;	%	NG
2	0.0	0.0	3	0.2	37.006516	0.000000;	%	NG
2	0.0	0.0	3	0.2	28.409357	0.000000;	%	NG
2	0.0	0.0	3	0.2	51.018648	0.000000;	%	NG
2	0.0	0.0	3	0.2	103.243210	0.000000;	%	PEL
2	0.0	0.0	3	0.2	106.556737	0.000000;	%	PEL
2	0.0	0.0	3	0.2	33.299717	0.000000;	%	NG
2	0.0	0.0	3	0.2	101.086629	0.000000;	%	PEL
2	0.0	0.0	3	0.2	32.433747	0.000000;	%	NG
2	0.0	0.0	3	0.2	26.309050	0.000000;	%	COW
2	0.0	0.0	3	0.2	38.102978	0.000000;	%	NG
2	0.0	0.0	3	0.2	129.975635	0.000000;	%	PEL
2	0.0	0.0	3	0.2	118.870177	0.000000;	%	PEL
2	0.0	0.0	3	0.2	119.611236	0.000000;	%	PEL
2	0.0	0.0	3	0.2	37.369756	0.000000;	%	NG
2	0.0	0.0	3	0.2	37.143663	0.000000;	%	COW
2	0.0	0.0	3	0.2	29.147531	0.000000;	%	NG
2	0.0	0.0	3	0.2	10.847489	0.000000;	%	NG
2	0.0	0.0	3	0.2	43.567399	0.000000;	%	NG
2	0.0	0.0	3	0.2	96.878349	0.000000;	%	PEL
2	0.0	0.0	3	0.2	50.230074	0.000000;	%	NG
2	0.0	0.0	3	0.2	19.708617	0.000000;	%	NG
2	0.0	0.0	3	0.2	32.465125	0.000000;	%	NG
2	0.0	0.0	3	0.2	37.248123	0.000000;	%	NG
2	0.0	0.0	3	0.2	57.897546	0.000000;	%	NG
2	0.0	0.0	3	0.2	38.548351	0.000000;	%	NG
2	0.0	0.0	3	0.2	25.674323	0.000000;	%	NG
2	0.0	0.0	3	0.2	105.602685	0.000000;	%	PEL
2	0.0	0.0	3	0.2	36.908456	0.000000;	%	NG
2	0.0	0.0	3	0.2	26.350641	0.000000;	%	NG
2	0.0	0.0	3	0.2	32.759528	0.000000;	%	COW
2	0.0	0.0	3	0.2	35.125286	0.000000;	%	COW
2	0.0	0.0	3	0.2	112.903501	0.000000;	%	PEL
2	0.0	0.0	3	0.2	35.780028	0.000000;	%	NG
2	0.0	0.0	3	0.2	34.509318	0.000000;	%	NG
2	0.0	0.0	3	0.2	104.643889	0.000000;	%	PEL
2	0.0	0.0	3	0.2	19.072458	0.000000;	%	NG
2	0.0	0.0	3	0.2	20.551347	0.000000;	%	NG
2	0.0	0.0	3	0.2	109.899886	0.000000;	%	PEL
2	0.0	0.0	3	0.2	117.575694	0.000000;	%	PEL
2	0.0	0.0	3	0.2	108.391758	0.000000;	%	PEL
2	0.0	0.0	3	0.2	110.287454	0.000000;	%	PEL
2	0.0	0.0	3	0.2	116.402421	0.000000;	%	PEL
2	0.0	0.0	3	0.2	32.281677	0.000000;	%	NG
2	0.0	0.0	3	0.2	24.936336	0.000000;	%	NG
2	0.0	0.0	3	0.2	34.627875	0.000000;	%	NG
2	0.0	0.0	3	0.2	29.079634	0.000000;	%	NG
2	0.0	0.0	3	0.2	114.987747	0.000000;	%	PEL
	2	 0.0	 0.0	 3	   0.000000	   0.000000	   0.000000; % SYNC
	2	 0.0	 0.0	 3	   0.000000	   0.000000	   0.000000; % SYNC
2	0.0	0.0	3	0.2	46.044674	0.000000;	%	NG
2	0.0	0.0	3	0.2	34.619523	0.000000;	%	COW
2	0.0	0.0	3	0.2	115.015285	0.000000;	%	PEL
2	0.0	0.0	3	0.2	45.023384	0.000000;	%	NG
2	0.0	0.0	3	0.2	57.259267	0.000000;	%	NG
2	0.0	0.0	3	0.2	26.528770	0.000000;	%	NG
2	0.0	0.0	3	0.2	25.436087	0.000000;	%	NG
...
];

%% storage data
%	bus	energy	energy_rating	charge_rating	discharge_rating	thermal_rating	qmin	qmax	r	x	standby_loss	status
mpc.storage = [
	2539	0.0	0.0	1.00	1286.1000	643.0500	462.9960	0.9	0.85	1000	-1000	1000	0.1	0.01	0	0	1;
	2557	0.0	0.0	1.00	948.4500	474.2250	341.4420	0.9	0.85	1000	-1000	1000	0.1	0.01	0	0	1;
	2560	0.0	0.0	1.00	926.1000	463.0500	333.3960	0.9	0.85	1000	-1000	1000	0.1	0.01	0	0	1;
	2570	0.0	0.0	1.00	923.5500	461.7750	332.4780	0.9	0.85	1000	-1000	1000	0.1	0.01	0	0	1;
	2558	0.0	0.0	1.00	834.0000	417.0000	300.2400	0.9	0.85	1000	-1000	1000	0.1	0.01	0	0	1;
	2540	0.0	0.0	1.00	764.4000	382.2000	275.1840	0.9	0.85	1000	-1000	1000	0.1	0.01	0	0	1;
	802	0.0	0.0	1.00	610.8000	305.4000	219.8880	0.9	0.85	1000	-1000	1000	0.1	0.01	0	0	1;
	2542	0.0	0.0	1.00	609.3000	304.6500	219.3480	0.9	0.85	1000	-1000	1000	0.1	0.01	0	0	1;
	2555	0.0	0.0	1.00	524.7000	262.3500	188.8920	0.9	0.85	1000	-1000	1000	0.1	0.01	0	0	1;
	2547	0.0	0.0	1.00	441.6000	220.8000	158.9760	0.9	0.85	1000	-1000	1000	0.1	0.01	0	0	1;
	2548	0.0	0.0	1.00	436.9500	218.4750	157.3020	0.9	0.85	1000	-1000	1000	0.1	0.01	0	0	1;
	2569	0.0	0.0	1.00	405.1500	202.5750	145.8540	0.9	0.85	1000	-1000	1000	0.1	0.01	0	0	1;
	2550	0.0	0.0	1.00	388.5000	194.2500	139.8600	0.9	0.85	1000	-1000	1000	0.1	0.01	0	0	1;
	1351	0.0	0.0	1.00	364.0500	182.0250	131.0580	0.9	0.85	1000	-1000	1000	0.1	0.01	0	0	1;
	575	0.0	0.0	1.00	356.5500	178.2750	128.3580	0.9	0.85	1000	-1000	1000	0.1	0.01	0	0	1;
	2564	0.0	0.0	1.00	336.3000	168.1500	121.0680	0.9	0.85	1000	-1000	1000	0.1	0.01	0	0	1;
	2559	0.0	0.0	1.00	330.0000	165.0000	118.8000	0.9	0.85	1000	-1000	1000	0.1	0.01	0	0	1;
	1345	0.0	0.0	1.00	327.3000	163.6500	117.8280	0.9	0.85	1000	-1000	1000	0.1	0.01	0	0	1;
	1735	0.0	0.0	1.00	319.3500	159.6750	114.9660	0.9	0.85	1000	-1000	1000	0.1	0.01	0	0	1;
	1109	0.0	0.0	1.00	309.3000	154.6500	111.3480	0.9	0.85	1000	-1000	1000	0.1	0.01	0	0	1;
	444	0.0	0.0	1.00	308.2500	154.1250	110.9700	0.9	0.85	1000	-1000	1000	0.1	0.01	0	0	1;
	1724	0.0	0.0	1.00	307.6500	153.8250	110.7540	0.9	0.85	1000	-1000	1000	0.1	0.01	0	0	1;
	904	0.0	0.0	1.00	297.6000	148.8000	107.1360	0.9	0.85	1000	-1000	1000	0.1	0.01	0	0	1;
	1015	0.0	0.0	1.00	296.8500	148.4250	106.8660	0.9	0.85	1000	-1000	1000	0.1	0.01	0	0	1;
	365	0.0	0.0	1.00	295.3500	147.6750	106.3260	0.9	0.85	1000	-1000	1000	0.1	0.01	0	0	1;
	1251	0.0	0.0	1.00	289.9500	144.9750	104.3820	0.9	0.85	1000	-1000	1000	0.1	0.01	0	0	1;
	1374	0.0	0.0	1.00	276.1500	138.0750	99.4140	0.9	0.85	1000	-1000	1000	0.1	0.01	0	0	1;
	1219	0.0	0.0	1.00	255.6000	127.8000	92.0160	0.9	0.85	1000	-1000	1000	0.1	0.01	0	0	1;
	2561	0.0	0.0	1.00	255.6000	127.8000	92.0160	0.9	0.85	1000	-1000	1000	0.1	0.01	0	0	1;
	441	0.0	0.0	1.00	254.7000	127.3500	91.6920	0.9	0.85	1000	-1000	1000	0.1	0.01	0	0	1;
	402	0.0	0.0	1.00	253.3500	126.6750	91.2060	0.9	0.85	1000	-1000	1000	0.1	0.01	0	0	1;
	395	0.0	0.0	1.00	251.1000	125.5500	90.3960	0.9	0.85	1000	-1000	1000	0.1	0.01	0	0	1;
	896	0.0	0.0	1.00	250.5000	125.2500	90.1800	0.9	0.85	1000	-1000	1000	0.1	0.01	0	0	1;
	674	0.0	0.0	1.00	249.6000	124.8000	89.8560	0.9	0.85	1000	-1000	1000	0.1	0.01	0	0	1;
	1888	0.0	0.0	1.00	248.8500	124.4250	89.5860	0.9	0.85	1000	-1000	1000	0.1	0.01	0	0	1;
	748	0.0	0.0	1.00	244.0500	122.0250	87.8580	0.9	0.85	1000	-1000	1000	0.1	0.01	0	0	1;
	286	0.0	0.0	1.00	238.2000	119.1000	85.7520	0.9	0.85	1000	-1000	1000	0.1	0.01	0	0	1;
	1748	0.0	0.0	1.00	236.2500	118.1250	85.0500	0.9	0.85	1000	-1000	1000	0.1	0.01	0	0	1;
	1274	0.0	0.0	1.00	232.5000	116.2500	83.7000	0.9	0.85	1000	-1000	1000	0.1	0.01	0	0	1;
	372	0.0	0.0	1.00	228.9000	114.4500	82.4040	0.9	0.85	1000	-1000	1000	0.1	0.01	0	0	1;
	199	0.0	0.0	1.00	228.6000	114.3000	82.2960	0.9	0.85	1000	-1000	1000	0.1	0.01	0	0	1;
	1387	0.0	0.0	1.00	228.6000	114.3000	82.2960	0.9	0.85	1000	-1000	1000	0.1	0.01	0	0	1;
	369	0.0	0.0	1.00	227.5500	113.7750	81.9180	0.9	0.85	1000	-1000	1000	0.1	0.01	0	0	1;
	959	0.0	0.0	1.00	226.5000	113.2500	81.5400	0.9	0.85	1000	-1000	1000	0.1	0.01	0	0	1;
	790	0.0	0.0	1.00	225.4500	112.7250	81.1620	0.9	0.85	1000	-1000	1000	0.1	0.01	0	0	1;
	614	0.0	0.0	1.00	221.8500	110.9250	79.8660	0.9	0.85	1000	-1000	1000	0.1	0.01	0	0	1;
	1295	0.0	0.0	1.00	220.9500	110.4750	79.5420	0.9	0.85	1000	-1000	1000	0.1	0.01	0	0	1;
	919	0.0	0.0	1.00	220.3500	110.1750	79.3260	0.9	0.85	1000	-1000	1000	0.1	0.01	0	0	1;
	1332	0.0	0.0	1.00	220.3500	110.1750	79.3260	0.9	0.85	1000	-1000	1000	0.1	0.01	0	0	1;
	527	0.0	0.0	1.00	219.1500	109.5750	78.8940	0.9	0.85	1000	-1000	1000	0.1	0.01	0	0	1;
	734	0.0	0.0	1.00	219.0000	109.5000	78.8400	0.9	0.85	1000	-1000	1000	0.1	0.01	0	0	1;
	1283	0.0	0.0	1.00	218.2500	109.1250	78.5700	0.9	0.85	1000	-1000	1000	0.1	0.01	0	0	1;
	2543	0.0	0.0	1.00	216.9000	108.4500	78.0840	0.9	0.85	1000	-1000	1000	0.1	0.01	0	0	1;
	2826	0.0	0.0	1.00	215.4000	107.7000	77.5440	0.9	0.85	1000	-1000	1000	0.1	0.01	0	0	1;
	69	0.0	0.0	1.00	208.9500	104.4750	75.2220	0.9	0.85	1000	-1000	1000	0.1	0.01	0	0	1;
	1556	0.0	0.0	1.00	208.3500	104.1750	75.0060	0.9	0.85	1000	-1000	1000	0.1	0.01	0	0	1;
	1542	0.0	0.0	1.00	205.5000	102.7500	73.9800	0.9	0.85	1000	-1000	1000	0.1	0.01	0	0	1;
	421	0.0	0.0	1.00	201.7500	100.8750	72.6300	0.9	0.85	1000	-1000	1000	0.1	0.01	0	0	1;
	264	0.0	0.0	1.00	201.0000	100.5000	72.3600	0.9	0.85	1000	-1000	1000	0.1	0.01	0	0	1;
	1824	0.0	0.0	1.00	198.4500	99.2250	71.4420	0.9	0.85	1000	-1000	1000	0.1	0.01	0	0	1;
	516	0.0	0.0	1.00	195.3000	97.6500	70.3080	0.9	0.85	1000	-1000	1000	0.1	0.01	0	0	1;
	1384	0.0	0.0	1.00	193.8000	96.9000	69.7680	0.9	0.85	1000	-1000	1000	0.1	0.01	0	0	1;
	1661	0.0	0.0	1.00	193.8000	96.9000	69.7680	0.9	0.85	1000	-1000	1000	0.1	0.01	0	0	1;
	551	0.0	0.0	1.00	193.6500	96.8250	69.7140	0.9	0.85	1000	-1000	1000	0.1	0.01	0	0	1;
	1483	0.0	0.0	1.00	192.9000	96.4500	69.4440	0.9	0.85	1000	-1000	1000	0.1	0.01	0	0	1;
	912	0.0	0.0	1.00	188.2500	94.1250	67.7700	0.9	0.85	1000	-1000	1000	0.1	0.01	0	0	1;
	2544	0.0	0.0	1.00	186.1500	93.0750	67.0140	0.9	0.85	1000	-1000	1000	0.1	0.01	0	0	1;
	947	0.0	0.0	1.00	184.9500	92.4750	66.5820	0.9	0.85	1000	-1000	1000	0.1	0.01	0	0	1;
	1434	0.0	0.0	1.00	184.5000	92.2500	66.4200	0.9	0.85	1000	-1000	1000	0.1	0.01	0	0	1;
	864	0.0	0.0	1.00	184.3500	92.1750	66.3660	0.9	0.85	1000	-1000	1000	0.1	0.01	0	0	1;
	1298	0.0	0.0	1.00	183.9000	91.9500	66.2040	0.9	0.85	1000	-1000	1000	0.1	0.01	0	0	1;
	675	0.0	0.0	1.00	183.7500	91.8750	66.1500	0.9	0.85	1000	-1000	1000	0.1	0.01	0	0	1;
	1158	0.0	0.0	1.00	180.1500	90.0750	64.8540	0.9	0.85	1000	-1000	1000	0.1	0.01	0	0	1;
	16	0.0	0.0	1.00	180.0000	90.0000	64.8000	0.9	0.85	1000	-1000	1000	0.1	0.01	0	0	1;
	596	0.0	0.0	1.00	178.6500	89.3250	64.3140	0.9	0.85	1000	-1000	1000	0.1	0.01	0	0	1;
	437	0.0	0.0	1.00	177.3000	88.6500	63.8280	0.9	0.85	1000	-1000	1000	0.1	0.01	0	0	1;
	2566	0.0	0.0	1.00	173.1000	86.5500	62.3160	0.9	0.85	1000	-1000	1000	0.1	0.01	0	0	1;
	1443	0.0	0.0	1.00	172.0500	86.0250	61.9380	0.9	0.85	1000	-1000	1000	0.1	0.01	0	0	1;
	1545	0.0	0.0	1.00	172.0500	86.0250	61.9380	0.9	0.85	1000	-1000	1000	0.1	0.01	0	0	1;
	1813	0.0	0.0	1.00	171.4500	85.7250	61.7220	0.9	0.85	1000	-1000	1000	0.1	0.01	0	0	1;
	677	0.0	0.0	1.00	169.9500	84.9750	61.1820	0.9	0.85	1000	-1000	1000	0.1	0.01	0	0	1;
	1804	0.0	0.0	1.00	169.3500	84.6750	60.9660	0.9	0.85	1000	-1000	1000	0.1	0.01	0	0	1;
	1715	0.0	0.0	1.00	168.9000	84.4500	60.8040	0.9	0.85	1000	-1000	1000	0.1	0.01	0	0	1;
	1024	0.0	0.0	1.00	167.2500	83.6250	60.2100	0.9	0.85	1000	-1000	1000	0.1	0.01	0	0	1;
	1708	0.0	0.0	1.00	166.6500	83.3250	59.9940	0.9	0.85	1000	-1000	1000	0.1	0.01	0	0	1;
	7	0.0	0.0	1.00	165.7500	82.8750	59.6700	0.9	0.85	1000	-1000	1000	0.1	0.01	0	0	1;
	747	0.0	0.0	1.00	164.7000	82.3500	59.2920	0.9	0.85	1000	-1000	1000	0.1	0.01	0	0	1;
	1020	0.0	0.0	1.00	163.6500	81.8250	58.9140	0.9	0.85	1000	-1000	1000	0.1	0.01	0	0	1;
	981	0.0	0.0	1.00	163.2000	81.6000	58.7520	0.9	0.85	1000	-1000	1000	0.1	0.01	0	0	1;
	1886	0.0	0.0	1.00	162.6000	81.3000	58.5360	0.9	0.85	1000	-1000	1000	0.1	0.01	0	0	1;
	1099	0.0	0.0	1.00	162.4500	81.2250	58.4820	0.9	0.85	1000	-1000	1000	0.1	0.01	0	0	1;
	2567	0.0	0.0	1.00	161.2500	80.6250	58.0500	0.9	0.85	1000	-1000	1000	0.1	0.01	0	0	1;
	2568	0.0	0.0	1.00	161.1000	80.5500	57.9960	0.9	0.85	1000	-1000	1000	0.1	0.01	0	0	1;
	768	0.0	0.0	1.00	159.3000	79.6500	57.3480	0.9	0.85	1000	-1000	1000	0.1	0.01	0	0	1;
	755	0.0	0.0	1.00	159.0000	79.5000	57.2400	0.9	0.85	1000	-1000	1000	0.1	0.01	0	0	1;
	1350	0.0	0.0	1.00	158.8500	79.4250	57.1860	0.9	0.85	1000	-1000	1000	0.1	0.01	0	0	1;
	949	0.0	0.0	1.00	156.3000	78.1500	56.2680	0.9	0.85	1000	-1000	1000	0.1	0.01	0	0	1;
	171	0.0	0.0	1.00	155.8500	77.9250	56.1060	0.9	0.85	1000	-1000	1000	0.1	0.01	0	0	1;
	1230	0.0	0.0	1.00	154.6500	77.3250	55.6740	0.9	0.85	1000	-1000	1000	0.1	0.01	0	0	1;
	1240	0.0	0.0	1.00	154.5000	77.2500	55.6200	0.9	0.85	1000	-1000	1000	0.1	0.01	0	0	1;
	1620	0.0	0.0	1.00	152.5500	76.2750	54.9180	0.9	0.85	1000	-1000	1000	0.1	0.01	0	0	1;
	1190	0.0	0.0	1.00	151.9500	75.9750	54.7020	0.9	0.85	1000	-1000	1000	0.1	0.01	0	0	1;
	216	0.0	0.0	1.00	151.6500	75.8250	54.5940	0.9	0.85	1000	-1000	1000	0.1	0.01	0	0	1;
	1719	0.0	0.0	1.00	151.6500	75.8250	54.5940	0.9	0.85	1000	-1000	1000	0.1	0.01	0	0	1;
	2896	0.0	0.0	1.00	151.5000	75.7500	54.5400	0.9	0.85	1000	-1000	1000	0.1	0.01	0	0	1;
	450	0.0	0.0	1.00	150.0000	75.0000	54.0000	0.9	0.85	1000	-1000	1000	0.1	0.01	0	0	1;
	991	0.0	0.0	1.00	148.9500	74.4750	53.6220	0.9	0.85	1000	-1000	1000	0.1	0.01	0	0	1;
	928	0.0	0.0	1.00	147.6000	73.8000	53.1360	0.9	0.85	1000	-1000	1000	0.1	0.01	0	0	1;
	1285	0.0	0.0	1.00	147.3000	73.6500	53.0280	0.9	0.85	1000	-1000	1000	0.1	0.01	0	0	1;
	1373	0.0	0.0	1.00	147.0000	73.5000	52.9200	0.9	0.85	1000	-1000	1000	0.1	0.01	0	0	1;
	956	0.0	0.0	1.00	146.2500	73.1250	52.6500	0.9	0.85	1000	-1000	1000	0.1	0.01	0	0	1;
	45	0.0	0.0	1.00	146.1000	73.0500	52.5960	0.9	0.85	1000	-1000	1000	0.1	0.01	0	0	1;
	812	0.0	0.0	1.00	145.9500	72.9750	52.5420	0.9	0.85	1000	-1000	1000	0.1	0.01	0	0	1;
	391	0.0	0.0	1.00	144.7500	72.3750	52.1100	0.9	0.85	1000	-1000	1000	0.1	0.01	0	0	1;
	359	0.0	0.0	1.00	144.6000	72.3000	52.0560	0.9	0.85	1000	-1000	1000	0.1	0.01	0	0	1;
	433	0.0	0.0	1.00	143.7000	71.8500	51.7320	0.9	0.85	1000	-1000	1000	0.1	0.01	0	0	1;
	926	0.0	0.0	1.00	142.9500	71.4750	51.4620	0.9	0.85	1000	-1000	1000	0.1	0.01	0	0	1;
	320	0.0	0.0	1.00	142.2000	71.1000	51.1920	0.9	0.85	1000	-1000	1000	0.1	0.01	0	0	1;
	455	0.0	0.0	1.00	142.0500	71.0250	51.1380	0.9	0.85	1000	-1000	1000	0.1	0.01	0	0	1;
	243	0.0	0.0	1.00	141.1500	70.5750	50.8140	0.9	0.85	1000	-1000	1000	0.1	0.01	0	0	1;
	1828	0.0	0.0	1.00	141.0000	70.5000	50.7600	0.9	0.85	1000	-1000	1000	0.1	0.01	0	0	1;
	2664	0.0	0.0	1.00	139.8000	69.9000	50.3280	0.9	0.85	1000	-1000	1000	0.1	0.01	0	0	1;
	951	0.0	0.0	1.00	138.3000	69.1500	49.7880	0.9	0.85	1000	-1000	1000	0.1	0.01	0	0	1;
	587	0.0	0.0	1.00	137.4000	68.7000	49.4640	0.9	0.85	1000	-1000	1000	0.1	0.01	0	0	1;
	1019	0.0	0.0	1.00	136.9500	68.4750	49.3020	0.9	0.85	1000	-1000	1000	0.1	0.01	0	0	1;
	1131	0.0	0.0	1.00	136.9500	68.4750	49.3020	0.9	0.85	1000	-1000	1000	0.1	0.01	0	0	1;
	1208	0.0	0.0	1.00	136.5000	68.2500	49.1400	0.9	0.85	1000	-1000	1000	0.1	0.01	0	0	1;
	1563	0.0	0.0	1.00	135.6000	67.8000	48.8160	0.9	0.85	1000	-1000	1000	0.1	0.01	0	0	1;
	1855	0.0	0.0	1.00	135.4500	67.7250	48.7620	0.9	0.85	1000	-1000	1000	0.1	0.01	0	0	1;
	1202	0.0	0.0	1.00	135.0000	67.5000	48.6000	0.9	0.85	1000	-1000	1000	0.1	0.01	0	0	1;
	2638	0.0	0.0	1.00	134.1000	67.0500	48.2760	0.9	0.85	1000	-1000	1000	0.1	0.01	0	0	1;
	361	0.0	0.0	1.00	134.1000	67.0500	48.2760	0.9	0.85	1000	-1000	1000	0.1	0.01	0	0	1;
	91	0.0	0.0	1.00	133.9500	66.9750	48.2220	0.9	0.85	1000	-1000	1000	0.1	0.01	0	0	1;
	410	0.0	0.0	1.00	133.8000	66.9000	48.1680	0.9	0.85	1000	-1000	1000	0.1	0.01	0	0	1;
	474	0.0	0.0	1.00	133.6500	66.8250	48.1140	0.9	0.85	1000	-1000	1000	0.1	0.01	0	0	1;
	580	0.0	0.0	1.00	133.2000	66.6000	47.9520	0.9	0.85	1000	-1000	1000	0.1	0.01	0	0	1;
	153	0.0	0.0	1.00	132.3000	66.1500	47.6280	0.9	0.85	1000	-1000	1000	0.1	0.01	0	0	1;
	796	0.0	0.0	1.00	132.3000	66.1500	47.6280	0.9	0.85	1000	-1000	1000	0.1	0.01	0	0	1;
	1619	0.0	0.0	1.00	132.1500	66.0750	47.5740	0.9	0.85	1000	-1000	1000	0.1	0.01	0	0	1;
	848	0.0	0.0	1.00	132.0000	66.0000	47.5200	0.9	0.85	1000	-1000	1000	0.1	0.01	0	0	1;
	522	0.0	0.0	1.00	131.7000	65.8500	47.4120	0.9	0.85	1000	-1000	1000	0.1	0.01	0	0	1;
	966	0.0	0.0	1.00	129.9000	64.9500	46.7640	0.9	0.85	1000	-1000	1000	0.1	0.01	0	0	1;
	1415	0.0	0.0	1.00	128.1000	64.0500	46.1160	0.9	0.85	1000	-1000	1000	0.1	0.01	0	0	1;
	792	0.0	0.0	1.00	126.9000	63.4500	45.6840	0.9	0.85	1000	-1000	1000	0.1	0.01	0	0	1;
	1267	0.0	0.0	1.00	126.3000	63.1500	45.4680	0.9	0.85	1000	-1000	1000	0.1	0.01	0	0	1;
	845	0.0	0.0	1.00	125.7000	62.8500	45.2520	0.9	0.85	1000	-1000	1000	0.1	0.01	0	0	1;
	1301	0.0	0.0	1.00	125.7000	62.8500	45.2520	0.9	0.85	1000	-1000	1000	0.1	0.01	0	0	1;
	70	0.0	0.0	1.00	125.5500	62.7750	45.1980	0.9	0.85	1000	-1000	1000	0.1	0.01	0	0	1;
	2554	0.0	0.0	1.00	125.4000	62.7000	45.1440	0.9	0.85	1000	-1000	1000	0.1	0.01	0	0	1;
	175	0.0	0.0	1.00	125.1000	62.5500	45.0360	0.9	0.85	1000	-1000	1000	0.1	0.01	0	0	1;
	1779	0.0	0.0	1.00	124.5000	62.2500	44.8200	0.9	0.85	1000	-1000	1000	0.1	0.01	0	0	1;
	657	0.0	0.0	1.00	124.3500	62.1750	44.7660	0.9	0.85	1000	-1000	1000	0.1	0.01	0	0	1;
	352	0.0	0.0	1.00	122.5500	61.2750	44.1180	0.9	0.85	1000	-1000	1000	0.1	0.01	0	0	1;
	608	0.0	0.0	1.00	122.2500	61.1250	44.0100	0.9	0.85	1000	-1000	1000	0.1	0.01	0	0	1;
	1377	0.0	0.0	1.00	121.9500	60.9750	43.9020	0.9	0.85	1000	-1000	1000	0.1	0.01	0	0	1;
	132	0.0	0.0	1.00	121.8000	60.9000	43.8480	0.9	0.85	1000	-1000	1000	0.1	0.01	0	0	1;
	708	0.0	0.0	1.00	121.8000	60.9000	43.8480	0.9	0.85	1000	-1000	1000	0.1	0.01	0	0	1;
	684	0.0	0.0	1.00	121.5000	60.7500	43.7400	0.9	0.85	1000	-1000	1000	0.1	0.01	0	0	1;
	1567	0.0	0.0	1.00	121.5000	60.7500	43.7400	0.9	0.85	1000	-1000	1000	0.1	0.01	0	0	1;
	1175	0.0	0.0	1.00	121.2000	60.6000	43.6320	0.9	0.85	1000	-1000	1000	0.1	0.01	0	0	1;
	1111	0.0	0.0	1.00	121.0500	60.5250	43.5780	0.9	0.85	1000	-1000	1000	0.1	0.01	0	0	1;
	41	0.0	0.0	1.00	120.6000	60.3000	43.4160	0.9	0.85	1000	-1000	1000	0.1	0.01	0	0	1;
	57	0.0	0.0	1.00	120.3000	60.1500	43.3080	0.9	0.85	1000	-1000	1000	0.1	0.01	0	0	1;
	1491	0.0	0.0	1.00	119.8500	59.9250	43.1460	0.9	0.85	1000	-1000	1000	0.1	0.01	0	0	1;
	1034	0.0	0.0	1.00	119.4000	59.7000	42.9840	0.9	0.85	1000	-1000	1000	0.1	0.01	0	0	1;
	428	0.0	0.0	1.00	118.8000	59.4000	42.7680	0.9	0.85	1000	-1000	1000	0.1	0.01	0	0	1;
	358	0.0	0.0	1.00	117.7500	58.8750	42.3900	0.9	0.85	1000	-1000	1000	0.1	0.01	0	0	1;
	39	0.0	0.0	1.00	117.6000	58.8000	42.3360	0.9	0.85	1000	-1000	1000	0.1	0.01	0	0	1;
	505	0.0	0.0	1.00	116.8500	58.4250	42.0660	0.9	0.85	1000	-1000	1000	0.1	0.01	0	0	1;
	20	0.0	0.0	1.00	115.9500	57.9750	41.7420	0.9	0.85	1000	-1000	1000	0.1	0.01	0	0	1;
	1340	0.0	0.0	1.00	115.9500	57.9750	41.7420	0.9	0.85	1000	-1000	1000	0.1	0.01	0	0	1;
	1732	0.0	0.0	1.00	115.9500	57.9750	41.7420	0.9	0.85	1000	-1000	1000	0.1	0.01	0	0	1;
	1865	0.0	0.0	1.00	115.9500	57.9750	41.7420	0.9	0.85	1000	-1000	1000	0.1	0.01	0	0	1;
	122	0.0	0.0	1.00	115.6500	57.8250	41.6340	0.9	0.85	1000	-1000	1000	0.1	0.01	0	0	1;
	2898	0.0	0.0	1.00	115.3500	57.6750	41.5260	0.9	0.85	1000	-1000	1000	0.1	0.01	0	0	1;
	288	0.0	0.0	1.00	115.0500	57.5250	41.4180	0.9	0.85	1000	-1000	1000	0.1	0.01	0	0	1;
	1002	0.0	0.0	1.00	114.6000	57.3000	41.2560	0.9	0.85	1000	-1000	1000	0.1	0.01	0	0	1;
	676	0.0	0.0	1.00	114.0000	57.0000	41.0400	0.9	0.85	1000	-1000	1000	0.1	0.01	0	0	1;
	1631	0.0	0.0	1.00	114.0000	57.0000	41.0400	0.9	0.85	1000	-1000	1000	0.1	0.01	0	0	1;
	1090	0.0	0.0	1.00	113.7000	56.8500	40.9320	0.9	0.85	1000	-1000	1000	0.1	0.01	0	0	1;
	1206	0.0	0.0	1.00	113.5500	56.7750	40.8780	0.9	0.85	1000	-1000	1000	0.1	0.01	0	0	1;
	1465	0.0	0.0	1.00	112.6500	56.3250	40.5540	0.9	0.85	1000	-1000	1000	0.1	0.01	0	0	1;
	2878	0.0	0.0	1.00	111.4500	55.7250	40.1220	0.9	0.85	1000	-1000	1000	0.1	0.01	0	0	1;
	1163	0.0	0.0	1.00	110.4000	55.2000	39.7440	0.9	0.85	1000	-1000	1000	0.1	0.01	0	0	1;
	1707	0.0	0.0	1.00	110.4000	55.2000	39.7440	0.9	0.85	1000	-1000	1000	0.1	0.01	0	0	1;
	2781	0.0	0.0	1.00	109.9500	54.9750	39.5820	0.9	0.85	1000	-1000	1000	0.1	0.01	0	0	1;
	778	0.0	0.0	1.00	108.1500	54.0750	38.9340	0.9	0.85	1000	-1000	1000	0.1	0.01	0	0	1;
	1471	0.0	0.0	1.00	107.5500	53.7750	38.7180	0.9	0.85	1000	-1000	1000	0.1	0.01	0	0	1;
	1637	0.0	0.0	1.00	107.4000	53.7000	38.6640	0.9	0.85	1000	-1000	1000	0.1	0.01	0	0	1;
	1762	0.0	0.0	1.00	107.2500	53.6250	38.6100	0.9	0.85	1000	-1000	1000	0.1	0.01	0	0	1;
	1028	0.0	0.0	1.00	106.8000	53.4000	38.4480	0.9	0.85	1000	-1000	1000	0.1	0.01	0	0	1;
	165	0.0	0.0	1.00	106.3500	53.1750	38.2860	0.9	0.85	1000	-1000	1000	0.1	0.01	0	0	1;
	987	0.0	0.0	1.00	106.3500	53.1750	38.2860	0.9	0.85	1000	-1000	1000	0.1	0.01	0	0	1;
	730	0.0	0.0	1.00	106.2000	53.1000	38.2320	0.9	0.85	1000	-1000	1000	0.1	0.01	0	0	1;
	789	0.0	0.0	1.00	105.9000	52.9500	38.1240	0.9	0.85	1000	-1000	1000	0.1	0.01	0	0	1;
	1299	0.0	0.0	1.00	105.4500	52.7250	37.9620	0.9	0.85	1000	-1000	1000	0.1	0.01	0	0	1;
	1831	0.0	0.0	1.00	105.3000	52.6500	37.9080	0.9	0.85	1000	-1000	1000	0.1	0.01	0	0	1;
	1890	0.0	0.0	1.00	105.1500	52.5750	37.8540	0.9	0.85	1000	-1000	1000	0.1	0.01	0	0	1;
	1185	0.0	0.0	1.00	105.0000	52.5000	37.8000	0.9	0.85	1000	-1000	1000	0.1	0.01	0	0	1;
	2929	0.0	0.0	1.00	105.0000	52.5000	37.8000	0.9	0.85	1000	-1000	1000	0.1	0.01	0	0	1;
...
];

%% branch data
%	fbus	tbus	r	x	b	rateA	rateB	rateC	ratio	angle	status	angmin	angmax
mpc.branch = [
	639	 1	 0.005799	 0.010615	 0.0075	 2441	 2441	 2441	 0.0	 0.0	 1	 -30.0	 30.0;
	909	 2	 0.002607	 0.017462	 0.0324	 540.0	 540.0	 540.0	 0.0	 0.0	 1	 -30.0	 30.0;
	2575	 3	 2.1e-05	 0.000125	 0.1386	 737.0	 737.0	 737.0	 0.0	 0.0	 1	 -30.0	 30.0;
	875	 3	 0.000145	 0.001877	 0.0635	 2487.0	 2487.0	 2487.0	 0.0	 0.0	 1	 -30.0	 30.0;
	1710	 3	 0.000319	 0.003234	 0.0838	 1841.0	 1841.0	 1841.0	 0.0	 0.0	 1	 -30.0	 30.0;
	46	 3	 2.1e-05	 0.000125	 0.1386	 737.0	 737.0	 737.0	 0.0	 0.0	 1	 -30.0	 30.0;
	1073	 4	 0.037541	 0.100529	 0.0011	 284	 284	 284	 0.0	 0.0	 1	 -30.0	 30.0;
	1533	 4	 0.090199	 0.211388	 0.0023	 133	 133	 133	 0.0	 0.0	 1	 -30.0	 30.0;
	1658	 4	 0.09801	 0.267574	 0.0	 107	 107	 107	 0.0	 0.0	 1	 -30.0	 30.0;
	1370	 5	 0.009383	 0.019753	 0.0	 1194	 1194	 1194	 0.0	 0.0	 1	 -30.0	 30.0;
	1370	 6	 0.001975	 0.004444	 0.0	 5369	 5369	 5369	 0.0	 0.0	 1	 -30.0	 30.0;
	199	 7	 0.006163	 0.041067	 0.0759	 446.0	 446.0	 446.0	 0.0	 0.0	 1	 -30.0	 30.0;
	880	 7	 0.000652	 0.004369	 0.0081	 558.0	 558.0	 558.0	 0.0	 0.0	 1	 -30.0	 30.0;
...